* NGSPICE file created from 3_OTA_flat.ext - technology: sky130A

.subckt x3_OTA_flat vo3 vin_p vin_n vcc vss
X0 a_9040_n3397# 3rd_3_OTA_0.vd3.t12 a_7434_495.t3 vss.t38 sky130_fd_pr__nfet_01v8_lvt ad=0.571714 pd=4.241143 as=0 ps=0 w=3 l=2
**devattr s=34800,1316 d=17400,658
X1 a_n1236_n9479.t47 OTA_vref_0.OTA_vref_stage1_0.sky130_fd_pr__rf_pnp_05v5_W3p40L3p40_0.Emitter.t3 OTA_vref_0.OTA_vref_stage2_0.vref0.t30 vss.t1 sky130_fd_pr__nfet_01v8_lvt ad=0 pd=0 as=0 ps=0 w=4 l=1
**devattr s=23200,858 d=23200,858
X2 a_7434_1657.t3 3rd_3_OTA_0.vd4.t8 a_9040_n3397# vss.t36 sky130_fd_pr__nfet_01v8_lvt ad=0 pd=0 as=0.571714 ps=4.241143 w=3 l=2
**devattr s=17400,658 d=17400,658
X3 3rd_3_OTA_0.vd3.t11 OTA_stage1_0.vd2.t3 a_n1050_166.t5 vcc.t29 sky130_fd_pr__pfet_01v8_lvt ad=0 pd=0 as=0 ps=0 w=15 l=1.9
**devattr s=87000,3058 d=174000,6116
X4 OTA_stage1_0.vd2.t0 vin_p.t0 a_n10077_1624# vss.t61 sky130_fd_pr__nfet_01v8_lvt ad=0 pd=0 as=0.966667 ps=7.053333 w=6 l=12
**devattr s=34800,1258 d=69600,2516
X5 vo3.t1 a_7434_1657.t12 vcc.t20 vcc.t19 sky130_fd_pr__pfet_01v8_lvt ad=0 pd=0 as=0 ps=0 w=2.6 l=0.35
**devattr s=30160,1156 d=30160,1156
X6 a_n1236_n9479.t46 OTA_vref_0.OTA_vref_stage1_0.sky130_fd_pr__rf_pnp_05v5_W3p40L3p40_0.Emitter.t4 OTA_vref_0.OTA_vref_stage2_0.vref0.t4 vss.t1 sky130_fd_pr__nfet_01v8_lvt ad=0 pd=0 as=0 ps=0 w=4 l=1
**devattr s=23200,858 d=23200,858
X7 a_n1236_n9479.t45 OTA_vref_0.OTA_vref_stage1_0.sky130_fd_pr__rf_pnp_05v5_W3p40L3p40_0.Emitter.t5 OTA_vref_0.OTA_vref_stage2_0.vref0.t28 vss.t0 sky130_fd_pr__nfet_01v8_lvt ad=0 pd=0 as=0 ps=0 w=4 l=1
**devattr s=23200,858 d=23200,858
X8 a_7434_1657.t9 a_7434_1657.t8 vcc.t18 vcc.t17 sky130_fd_pr__pfet_01v8_lvt ad=0 pd=0 as=0 ps=0 w=2.5 l=5
**devattr s=14500,558 d=14500,558
X9 a_7434_495.t11 a_7434_495.t10 vcc.t47 vcc.t15 sky130_fd_pr__pfet_01v8_lvt ad=0 pd=0 as=0 ps=0 w=2.5 l=5
**devattr s=14500,558 d=29000,1116
X10 OTA_vref_0.vb1.t4 a_2382_n6868# a_2470_n7958# vss.t13 sky130_fd_pr__nfet_01v8_lvt ad=0 pd=0 as=0.145 ps=1.29 w=1 l=1
**devattr s=5800,258 d=5800,258
X11 a_n1236_n9479.t44 OTA_vref_0.OTA_vref_stage1_0.sky130_fd_pr__rf_pnp_05v5_W3p40L3p40_0.Emitter.t6 OTA_vref_0.OTA_vref_stage2_0.vref0.t23 vss.t0 sky130_fd_pr__nfet_01v8_lvt ad=0 pd=0 as=0 ps=0 w=4 l=1
**devattr s=23200,858 d=23200,858
X12 a_2382_n8158# OTA_vref_0.OTA_vref_stage2_0.vr.t20 vcc.t49 vcc.t48 sky130_fd_pr__pfet_01v8_lvt ad=0.29 pd=2.58 as=0 ps=0 w=1 l=2
**devattr s=11600,516 d=11600,516
X13 OTA_vref_0.OTA_vref_stage2_0.vref0.t3 OTA_vref_0.OTA_vref_stage1_0.sky130_fd_pr__rf_pnp_05v5_W3p40L3p40_0.Emitter.t7 a_n1236_n9479.t43 vss.t1 sky130_fd_pr__nfet_01v8_lvt ad=0 pd=0 as=0 ps=0 w=4 l=1
**devattr s=23200,858 d=23200,858
X14 a_11847_n1701# a_11847_n1701# vss.t23 vss.t22 sky130_fd_pr__nfet_01v8_lvt ad=0.29 pd=2.58 as=0 ps=0 w=1 l=0.15
**devattr s=11600,516 d=11600,516
X15 vss.t37 3rd_3_OTA_0.vd3.t5 3rd_3_OTA_0.vd3.t6 vss.t26 sky130_fd_pr__nfet_01v8_lvt ad=0 pd=0 as=0 ps=0 w=1.5 l=9.4
**devattr s=8700,358 d=8700,358
X16 a_11275_n2439.t1 3rd_3_OTA_0.vd1 sky130_fd_pr__cap_mim_m3_1 l=17 w=17
X17 OTA_stage1_0.vd2.t2 OTA_stage1_0.vd2.t0 vcc.t28 vcc.t26 sky130_fd_pr__pfet_01v8_lvt ad=0 pd=0 as=0 ps=0 w=1.8 l=18
**devattr s=10440,418 d=20880,836
X18 vss.t43 a_n1236_n9479.t30 a_n1236_n9479.t31 vss.t1 sky130_fd_pr__nfet_01v8_lvt ad=0 pd=0 as=0 ps=0 w=4 l=1
**devattr s=23200,858 d=23200,858
X19 3rd_3_OTA_0.vb a_2382_n4288# a_2382_n4288# vss.t51 sky130_fd_pr__nfet_01v8_lvt ad=0.174 pd=1.548 as=0.145 ps=1.29 w=1 l=1
**devattr s=5800,258 d=5800,258
X20 OTA_vref_0.OTA_vref_stage2_0.vref0.t1 OTA_vref_0.OTA_vref_stage1_0.sky130_fd_pr__rf_pnp_05v5_W3p40L3p40_0.Emitter.t8 a_n1236_n9479.t42 vss.t0 sky130_fd_pr__nfet_01v8_lvt ad=0 pd=0 as=0 ps=0 w=4 l=1
**devattr s=23200,858 d=23200,858
X21 OTA_vref_0.OTA_vref_stage2_0.vref0.t6 OTA_vref_0.OTA_vref_stage1_0.sky130_fd_pr__rf_pnp_05v5_W3p40L3p40_0.Emitter.t9 a_n1236_n9479.t41 vss.t0 sky130_fd_pr__nfet_01v8_lvt ad=0 pd=0 as=0 ps=0 w=4 l=1
**devattr s=23200,858 d=23200,858
X22 vss.t0 vss.t14 OTA_vref_0.OTA_vref_stage1_0.sky130_fd_pr__rf_pnp_05v5_W3p40L3p40_0.Emitter.t1 sky130_fd_pr__pnp_05v5_W3p40L3p40
**devattr s=462400,2720
X23 3rd_3_OTA_0.vd1.t1 OTA_stage1_0.vd2.t0 vcc.t27 vcc.t26 sky130_fd_pr__pfet_01v8_lvt ad=0 pd=0 as=0 ps=0 w=1.8 l=18
**devattr s=10440,418 d=20880,836
X24 a_n10077_1624# vin_p.t1 OTA_stage1_0.vd2.t0 vss.t6 sky130_fd_pr__nfet_01v8_lvt ad=0.966667 pd=7.053333 as=0 ps=0 w=6 l=12
**devattr s=69600,2516 d=34800,1258
X25 a_7434_1657.t7 a_7434_1657.t6 vcc.t16 vcc.t15 sky130_fd_pr__pfet_01v8_lvt ad=0 pd=0 as=0 ps=0 w=2.5 l=5
**devattr s=14500,558 d=29000,1116
X26 vss.t59 a_n1236_n9479.t28 a_n1236_n9479.t29 vss.t0 sky130_fd_pr__nfet_01v8_lvt ad=0 pd=0 as=0 ps=0 w=4 l=1
**devattr s=23200,858 d=23200,858
X27 a_11847_n1701# a_7434_495.t12 vcc.t46 vcc.t45 sky130_fd_pr__pfet_01v8_lvt ad=0.754 pd=5.78 as=0 ps=0 w=2.6 l=0.35
**devattr s=30160,1156 d=30160,1156
X28 a_7434_495.t2 3rd_3_OTA_0.vd3.t13 a_9040_n3397# vss.t36 sky130_fd_pr__nfet_01v8_lvt ad=0 pd=0 as=0.571714 ps=4.241143 w=3 l=2
**devattr s=17400,658 d=17400,658
X29 a_2382_n6868# a_2382_n6868# OTA_vref_0.vb1.t3 vss.t12 sky130_fd_pr__nfet_01v8_lvt ad=0.145 pd=1.29 as=0 ps=0 w=1 l=1
**devattr s=5800,258 d=5800,258
X30 OTA_vref_0.OTA_vref_stage2_0.vref0.t17 OTA_vref_0.OTA_vref_stage1_0.sky130_fd_pr__rf_pnp_05v5_W3p40L3p40_0.Emitter.t10 a_n1236_n9479.t40 vss.t0 sky130_fd_pr__nfet_01v8_lvt ad=0 pd=0 as=0 ps=0 w=4 l=1
**devattr s=23200,858 d=23200,858
X31 OTA_vref_0.OTA_vref_stage2_0.vr.t19 OTA_vref_0.OTA_vref_stage1_0.sky130_fd_pr__rf_pnp_05v5_W3p40L3p40_0.Emitter.t11 OTA_vref_0.OTA_vref_stage2_0.vref0.t20 vss.t1 sky130_fd_pr__nfet_01v8_lvt ad=0 pd=0 as=0 ps=0 w=4 l=1
**devattr s=23200,858 d=23200,858
X32 3rd_3_OTA_0.vd3.t8 3rd_3_OTA_0.vd3.t7 vss.t35 vss.t30 sky130_fd_pr__nfet_01v8_lvt ad=0 pd=0 as=0 ps=0 w=1.5 l=9.4
**devattr s=8700,358 d=17400,716
X33 vcc.t14 a_7434_1657.t10 a_7434_1657.t11 vcc.t13 sky130_fd_pr__pfet_01v8_lvt ad=0 pd=0 as=0 ps=0 w=2.5 l=5
**devattr s=14500,558 d=14500,558
X34 a_2470_n7958# a_2382_n8158# a_2382_n8158# vss.t56 sky130_fd_pr__nfet_01v8_lvt ad=0.145 pd=1.29 as=0.145 ps=1.29 w=1 l=1
**devattr s=5800,258 d=5800,258
X35 OTA_vref_0.OTA_vref_stage2_0.vref0.t2 OTA_vref_0.OTA_vref_stage1_0.sky130_fd_pr__rf_pnp_05v5_W3p40L3p40_0.Emitter.t12 a_n1236_n9479.t39 vss.t0 sky130_fd_pr__nfet_01v8_lvt ad=0 pd=0 as=0 ps=0 w=4 l=1
**devattr s=23200,858 d=23200,858
X36 OTA_vref_0.OTA_vref_stage2_0.vr.t18 OTA_vref_0.OTA_vref_stage1_0.sky130_fd_pr__rf_pnp_05v5_W3p40L3p40_0.Emitter.t13 OTA_vref_0.OTA_vref_stage2_0.vref0.t10 vss.t1 sky130_fd_pr__nfet_01v8_lvt ad=0 pd=0 as=0 ps=0 w=4 l=1
**devattr s=23200,858 d=23200,858
X37 a_n1050_166.t4 OTA_stage1_0.vd2.t4 3rd_3_OTA_0.vd3.t10 vcc.t4 sky130_fd_pr__pfet_01v8_lvt ad=0 pd=0 as=0 ps=0 w=15 l=1.9
**devattr s=87000,3058 d=87000,3058
X38 a_2382_n6868# a_2382_n6868# OTA_vref_0.vb1.t2 vss.t11 sky130_fd_pr__nfet_01v8_lvt ad=0.145 pd=1.29 as=0 ps=0 w=1 l=1
**devattr s=5800,258 d=5800,258
X39 vcc.t12 a_7434_1657.t4 a_7434_1657.t5 vcc.t11 sky130_fd_pr__pfet_01v8_lvt ad=0 pd=0 as=0 ps=0 w=2.5 l=5
**devattr s=29000,1116 d=14500,558
X40 a_2382_n4288# a_2382_n4288# 3rd_3_OTA_0.vb vss.t50 sky130_fd_pr__nfet_01v8_lvt ad=0.145 pd=1.29 as=0.174 ps=1.548 w=1 l=1
**devattr s=5800,258 d=5800,258
X41 a_n1236_n9479.t38 OTA_vref_0.OTA_vref_stage1_0.sky130_fd_pr__rf_pnp_05v5_W3p40L3p40_0.Emitter.t14 OTA_vref_0.OTA_vref_stage2_0.vref0.t18 vss.t0 sky130_fd_pr__nfet_01v8_lvt ad=0 pd=0 as=0 ps=0 w=4 l=1
**devattr s=23200,858 d=23200,858
X42 a_n1050_166.t10 OTA_vref_0.vb1.t6 vcc.t41 vcc.t40 sky130_fd_pr__pfet_01v8 ad=0 pd=0 as=0 ps=0 w=7 l=1.8
**devattr s=40600,1458 d=81200,2916
X43 3rd_3_OTA_0.vd4.t9 3rd_3_OTA_0.vd1 sky130_fd_pr__cap_mim_m3_1 l=10 w=10
X44 vss.t62 a_n1236_n9479.t26 a_n1236_n9479.t27 vss.t1 sky130_fd_pr__nfet_01v8_lvt ad=0 pd=0 as=0 ps=0 w=4 l=1
**devattr s=23200,858 d=23200,858
X45 OTA_vref_0.OTA_vref_stage2_0.vr.t17 OTA_vref_0.OTA_vref_stage1_0.sky130_fd_pr__rf_pnp_05v5_W3p40L3p40_0.Emitter.t15 OTA_vref_0.OTA_vref_stage2_0.vref0.t8 vss.t1 sky130_fd_pr__nfet_01v8_lvt ad=0 pd=0 as=0 ps=0 w=4 l=1
**devattr s=23200,858 d=46400,1716
X46 OTA_vref_0.OTA_vref_stage2_0.vr.t16 OTA_vref_0.OTA_vref_stage1_0.sky130_fd_pr__rf_pnp_05v5_W3p40L3p40_0.Emitter.t16 OTA_vref_0.OTA_vref_stage2_0.vref0.t11 vss.t0 sky130_fd_pr__nfet_01v8_lvt ad=0 pd=0 as=0 ps=0 w=4 l=1
**devattr s=23200,858 d=23200,858
X47 OTA_vref_0.OTA_vref_stage2_0.vr.t3 OTA_vref_0.OTA_vref_stage2_0.vr.t2 vcc.t34 vcc.t9 sky130_fd_pr__pfet_01v8_lvt ad=0 pd=0 as=0 ps=0 w=0.5 l=2
**devattr s=2900,158 d=5800,316
X48 vss.t34 3rd_3_OTA_0.vd3.t14 3rd_3_OTA_0.vd4.t4 vss.t28 sky130_fd_pr__nfet_01v8_lvt ad=0 pd=0 as=0 ps=0 w=1.5 l=9.4
**devattr s=17400,716 d=8700,358
X49 OTA_vref_0.vb1.t1 a_2382_n6868# a_2382_n6868# vss.t10 sky130_fd_pr__nfet_01v8_lvt ad=0 pd=0 as=0.145 ps=1.29 w=1 l=1
**devattr s=5800,258 d=5800,258
X50 vcc.t36 OTA_vref_0.vb1.t7 a_n1050_166.t8 vcc.t35 sky130_fd_pr__pfet_01v8 ad=0 pd=0 as=0 ps=0 w=7 l=1.8
**devattr s=40600,1458 d=40600,1458
X51 vss.t8 a_n1236_n9479.t24 a_n1236_n9479.t25 vss.t1 sky130_fd_pr__nfet_01v8_lvt ad=0 pd=0 as=0 ps=0 w=4 l=1
**devattr s=23200,858 d=23200,858
X52 a_9040_n3397# 3rd_3_OTA_0.vd4.t10 a_7434_1657.t2 vss.t38 sky130_fd_pr__nfet_01v8_lvt ad=0.571714 pd=4.241143 as=0 ps=0 w=3 l=2
**devattr s=34800,1316 d=17400,658
X53 3rd_3_OTA_0.vb a_2382_n4288# a_2470_n5378# vss.t49 sky130_fd_pr__nfet_01v8_lvt ad=0.174 pd=1.548 as=0.145 ps=1.29 w=1 l=1
**devattr s=5800,258 d=5800,258
X54 a_2382_n5578# OTA_vref_0.OTA_vref_stage2_0.vr.t21 vcc.t8 vcc.t7 sky130_fd_pr__pfet_01v8_lvt ad=0.29 pd=2.58 as=0 ps=0 w=1 l=2
**devattr s=11600,516 d=11600,516
X55 vss.t46 a_n1236_n9479.t22 a_n1236_n9479.t23 vss.t1 sky130_fd_pr__nfet_01v8_lvt ad=0 pd=0 as=0 ps=0 w=4 l=1
**devattr s=23200,858 d=23200,858
X56 vss.t44 a_n1236_n9479.t20 a_n1236_n9479.t21 vss.t0 sky130_fd_pr__nfet_01v8_lvt ad=0 pd=0 as=0 ps=0 w=4 l=1
**devattr s=23200,858 d=23200,858
X57 a_n1050_166.t1 3rd_3_OTA_0.vd1.t4 3rd_3_OTA_0.vd4.t0 vcc.t4 sky130_fd_pr__pfet_01v8_lvt ad=0 pd=0 as=0 ps=0 w=15 l=1.9
**devattr s=87000,3058 d=87000,3058
X58 vss.t60 a_n1236_n9479.t18 a_n1236_n9479.t19 vss.t0 sky130_fd_pr__nfet_01v8_lvt ad=0 pd=0 as=0 ps=0 w=4 l=1
**devattr s=23200,858 d=23200,858
X59 a_n10077_1624# vin_n.t0 3rd_3_OTA_0.vd1.t3 vss.t58 sky130_fd_pr__nfet_01v8_lvt ad=0.966667 pd=7.053333 as=0 ps=0 w=6 l=12
**devattr s=69600,2516 d=34800,1258
X60 a_2470_n7958# a_2382_n8158# OTA_vref_0.OTA_vref_stage2_0.vref0.t32 vss.t55 sky130_fd_pr__nfet_01v8_lvt ad=0.145 pd=1.29 as=0 ps=0 w=1 l=1
**devattr s=11600,516 d=5800,258
X61 vcc.t39 OTA_vref_0.vb1.t8 a_n1050_166.t9 vcc.t38 sky130_fd_pr__pfet_01v8 ad=0 pd=0 as=0 ps=0 w=7 l=1.8
**devattr s=81200,2916 d=40600,1458
X62 a_n1050_166.t6 3rd_3_OTA_0.vd1.t5 3rd_3_OTA_0.vd4.t5 vcc.t25 sky130_fd_pr__pfet_01v8_lvt ad=0 pd=0 as=0 ps=0 w=15 l=1.9
**devattr s=174000,6116 d=87000,3058
X63 3rd_3_OTA_0.vd3.t2 3rd_3_OTA_0.vd3.t1 vss.t33 vss.t26 sky130_fd_pr__nfet_01v8_lvt ad=0 pd=0 as=0 ps=0 w=1.5 l=9.4
**devattr s=8700,358 d=8700,358
X64 a_n1236_n9479.t17 a_n1236_n9479.t16 vss.t4 vss.t1 sky130_fd_pr__nfet_01v8_lvt ad=0 pd=0 as=0 ps=0 w=4 l=1
**devattr s=23200,858 d=23200,858
X65 a_2382_n4288# a_2382_n4288# 3rd_3_OTA_0.vb vss.t48 sky130_fd_pr__nfet_01v8_lvt ad=0.145 pd=1.29 as=0.174 ps=1.548 w=1 l=1
**devattr s=5800,258 d=5800,258
X66 OTA_vref_0.OTA_vref_stage2_0.vr.t15 OTA_vref_0.OTA_vref_stage1_0.sky130_fd_pr__rf_pnp_05v5_W3p40L3p40_0.Emitter.t17 OTA_vref_0.OTA_vref_stage2_0.vref0.t9 vss.t0 sky130_fd_pr__nfet_01v8_lvt ad=0 pd=0 as=0 ps=0 w=4 l=1
**devattr s=23200,858 d=23200,858
X67 vss.t7 a_n1236_n9479.t14 a_n1236_n9479.t15 vss.t0 sky130_fd_pr__nfet_01v8_lvt ad=0 pd=0 as=0 ps=0 w=4 l=1
**devattr s=23200,858 d=46400,1716
X68 a_n1050_166.t3 OTA_stage1_0.vd2.t5 3rd_3_OTA_0.vd3.t0 vcc.t25 sky130_fd_pr__pfet_01v8_lvt ad=0 pd=0 as=0 ps=0 w=15 l=1.9
**devattr s=174000,6116 d=87000,3058
X69 a_n1236_n9479.t13 a_n1236_n9479.t12 vss.t2 vss.t1 sky130_fd_pr__nfet_01v8_lvt ad=0 pd=0 as=0 ps=0 w=4 l=1
**devattr s=23200,858 d=23200,858
X70 a_2470_n5378# a_2382_n5578# a_2382_n5578# vss.t19 sky130_fd_pr__nfet_01v8_lvt ad=0.145 pd=1.29 as=0.145 ps=1.29 w=1 l=1
**devattr s=5800,258 d=5800,258
X71 vcc.t6 OTA_vref_0.OTA_vref_stage2_0.vr.t22 OTA_vref_0.OTA_vref_stage1_0.sky130_fd_pr__rf_pnp_05v5_W3p40L3p40_0.Emitter.t0 vcc.t5 sky130_fd_pr__pfet_01v8_lvt ad=0 pd=0 as=0 ps=0 w=1 l=1
**devattr s=11600,516 d=5800,258
X72 vss.t32 3rd_3_OTA_0.vd3.t15 3rd_3_OTA_0.vd4.t3 vss.t26 sky130_fd_pr__nfet_01v8_lvt ad=0 pd=0 as=0 ps=0 w=1.5 l=9.4
**devattr s=8700,358 d=8700,358
X73 OTA_vref_0.OTA_vref_stage2_0.vr.t14 OTA_vref_0.OTA_vref_stage1_0.sky130_fd_pr__rf_pnp_05v5_W3p40L3p40_0.Emitter.t18 OTA_vref_0.OTA_vref_stage2_0.vref0.t25 vss.t0 sky130_fd_pr__nfet_01v8_lvt ad=0 pd=0 as=0 ps=0 w=4 l=1
**devattr s=23200,858 d=23200,858
X74 OTA_vref_0.OTA_vref_stage2_0.vref0.t26 OTA_vref_0.OTA_vref_stage1_0.sky130_fd_pr__rf_pnp_05v5_W3p40L3p40_0.Emitter.t19 OTA_vref_0.OTA_vref_stage2_0.vr.t13 vss.t1 sky130_fd_pr__nfet_01v8_lvt ad=0 pd=0 as=0 ps=0 w=4 l=1
**devattr s=23200,858 d=23200,858
X75 OTA_vref_0.OTA_vref_stage2_0.vr.t12 OTA_vref_0.OTA_vref_stage1_0.sky130_fd_pr__rf_pnp_05v5_W3p40L3p40_0.Emitter.t20 OTA_vref_0.OTA_vref_stage2_0.vref0.t12 vss.t0 sky130_fd_pr__nfet_01v8_lvt ad=0 pd=0 as=0 ps=0 w=4 l=1
**devattr s=23200,858 d=23200,858
X76 OTA_vref_0.OTA_vref_stage2_0.vref0.t21 OTA_vref_0.OTA_vref_stage1_0.sky130_fd_pr__rf_pnp_05v5_W3p40L3p40_0.Emitter.t21 OTA_vref_0.OTA_vref_stage2_0.vr.t11 vss.t1 sky130_fd_pr__nfet_01v8_lvt ad=0 pd=0 as=0 ps=0 w=4 l=1
**devattr s=23200,858 d=23200,858
X77 a_7434_1657.t1 3rd_3_OTA_0.vd4.t11 a_9040_n3397# vss.t24 sky130_fd_pr__nfet_01v8_lvt ad=0 pd=0 as=0.571714 ps=4.241143 w=3 l=2
**devattr s=17400,658 d=34800,1316
X78 3rd_3_OTA_0.vd3.t9 OTA_stage1_0.vd2.t6 a_n1050_166.t2 vcc.t24 sky130_fd_pr__pfet_01v8_lvt ad=0 pd=0 as=0 ps=0 w=15 l=1.9
**devattr s=87000,3058 d=87000,3058
X79 a_2382_n8158# a_2382_n8158# a_2470_n7958# vss.t54 sky130_fd_pr__nfet_01v8_lvt ad=0.145 pd=1.29 as=0.145 ps=1.29 w=1 l=1
**devattr s=5800,258 d=5800,258
X80 3rd_3_OTA_0.vd1.t2 vin_n.t1 a_n10077_1624# vss.t41 sky130_fd_pr__nfet_01v8_lvt ad=0 pd=0 as=0.966667 ps=7.053333 w=6 l=12
**devattr s=34800,1258 d=69600,2516
X81 a_2382_n5578# a_2382_n5578# a_2470_n5378# vss.t18 sky130_fd_pr__nfet_01v8_lvt ad=0.145 pd=1.29 as=0.145 ps=1.29 w=1 l=1
**devattr s=5800,258 d=5800,258
X82 a_7434_495.t9 a_7434_495.t8 vcc.t44 vcc.t17 sky130_fd_pr__pfet_01v8_lvt ad=0 pd=0 as=0 ps=0 w=2.5 l=5
**devattr s=14500,558 d=14500,558
X83 OTA_vref_0.OTA_vref_stage2_0.vref0.t31 OTA_vref_0.OTA_vref_stage1_0.sky130_fd_pr__rf_pnp_05v5_W3p40L3p40_0.Emitter.t22 a_n1236_n9479.t37 vss.t1 sky130_fd_pr__nfet_01v8_lvt ad=0 pd=0 as=0 ps=0 w=4 l=1
**devattr s=23200,858 d=23200,858
X84 3rd_3_OTA_0.vb a_2382_n4288# a_2382_n4288# vss.t47 sky130_fd_pr__nfet_01v8_lvt ad=0.174 pd=1.548 as=0.145 ps=1.29 w=1 l=1
**devattr s=5800,258 d=11600,516
X85 OTA_vref_0.OTA_vref_stage2_0.vref0.t13 OTA_vref_0.OTA_vref_stage1_0.sky130_fd_pr__rf_pnp_05v5_W3p40L3p40_0.Emitter.t23 OTA_vref_0.OTA_vref_stage2_0.vr.t10 vss.t1 sky130_fd_pr__nfet_01v8_lvt ad=0 pd=0 as=0 ps=0 w=4 l=1
**devattr s=23200,858 d=23200,858
X86 a_n1050_166.t0 OTA_vref_0.vb1.t9 vcc.t3 vcc.t2 sky130_fd_pr__pfet_01v8 ad=0 pd=0 as=0 ps=0 w=7 l=1.8
**devattr s=40600,1458 d=40600,1458
X87 OTA_vref_0.OTA_vref_stage1_0.sky130_fd_pr__rf_pnp_05v5_W3p40L3p40_0.Emitter.t2 OTA_vref_0.OTA_vref_stage2_0.vr.t23 vcc.t33 vcc.t32 sky130_fd_pr__pfet_01v8_lvt ad=0 pd=0 as=0 ps=0 w=1 l=1
**devattr s=5800,258 d=11600,516
X88 OTA_vref_0.OTA_vref_stage2_0.vref0.t22 OTA_vref_0.OTA_vref_stage1_0.sky130_fd_pr__rf_pnp_05v5_W3p40L3p40_0.Emitter.t24 OTA_vref_0.OTA_vref_stage2_0.vr.t9 vss.t0 sky130_fd_pr__nfet_01v8_lvt ad=0 pd=0 as=0 ps=0 w=4 l=1
**devattr s=23200,858 d=23200,858
X89 a_2470_n5378# a_2382_n5578# OTA_vref_0.vb1.t5 vss.t17 sky130_fd_pr__nfet_01v8_lvt ad=0.145 pd=1.29 as=0 ps=0 w=1 l=1
**devattr s=5800,258 d=5800,258
X90 OTA_vref_0.OTA_vref_stage2_0.vref0.t7 OTA_vref_0.OTA_vref_stage1_0.sky130_fd_pr__rf_pnp_05v5_W3p40L3p40_0.Emitter.t25 OTA_vref_0.OTA_vref_stage2_0.vr.t8 vss.t0 sky130_fd_pr__nfet_01v8_lvt ad=0 pd=0 as=0 ps=0 w=4 l=1
**devattr s=23200,858 d=23200,858
X91 a_2382_n6868# OTA_vref_0.OTA_vref_stage2_0.vr.t24 vcc.t31 vcc.t30 sky130_fd_pr__pfet_01v8_lvt ad=0.29 pd=2.58 as=0 ps=0 w=1 l=2
**devattr s=11600,516 d=11600,516
X92 a_n1236_n9479.t11 a_n1236_n9479.t10 vss.t3 vss.t1 sky130_fd_pr__nfet_01v8_lvt ad=0 pd=0 as=0 ps=0 w=4 l=1
**devattr s=23200,858 d=23200,858
X93 a_2470_n7958# a_2382_n8158# a_2382_n8158# vss.t53 sky130_fd_pr__nfet_01v8_lvt ad=0.145 pd=1.29 as=0.145 ps=1.29 w=1 l=1
**devattr s=5800,258 d=5800,258
X94 vcc.t43 a_7434_495.t4 a_7434_495.t5 vcc.t13 sky130_fd_pr__pfet_01v8_lvt ad=0 pd=0 as=0 ps=0 w=2.5 l=5
**devattr s=14500,558 d=14500,558
X95 3rd_3_OTA_0.vd4.t2 3rd_3_OTA_0.vd3.t16 vss.t31 vss.t30 sky130_fd_pr__nfet_01v8_lvt ad=0 pd=0 as=0 ps=0 w=1.5 l=9.4
**devattr s=8700,358 d=17400,716
X96 a_n1236_n9479.t9 a_n1236_n9479.t8 vss.t57 vss.t1 sky130_fd_pr__nfet_01v8_lvt ad=0 pd=0 as=0 ps=0 w=4 l=1
**devattr s=23200,858 d=23200,858
X97 a_n1236_n9479.t7 a_n1236_n9479.t6 vss.t45 vss.t0 sky130_fd_pr__nfet_01v8_lvt ad=0 pd=0 as=0 ps=0 w=4 l=1
**devattr s=23200,858 d=23200,858
X98 vo3.t2 a_11847_n1701# vss.t21 vss.t20 sky130_fd_pr__nfet_01v8_lvt ad=0 pd=0 as=0 ps=0 w=1 l=0.15
**devattr s=11600,516 d=11600,516
X99 a_9040_n3397# 3rd_3_OTA_0.vd4.t12 a_7434_1657.t0 vss.t25 sky130_fd_pr__nfet_01v8_lvt ad=0.571714 pd=4.241143 as=0 ps=0 w=3 l=2
**devattr s=17400,658 d=17400,658
X100 vss.t29 3rd_3_OTA_0.vd3.t3 3rd_3_OTA_0.vd3.t4 vss.t28 sky130_fd_pr__nfet_01v8_lvt ad=0 pd=0 as=0 ps=0 w=1.5 l=9.4
**devattr s=17400,716 d=8700,358
X101 a_2382_n8158# a_2382_n8158# a_2470_n7958# vss.t52 sky130_fd_pr__nfet_01v8_lvt ad=0.145 pd=1.29 as=0.145 ps=1.29 w=1 l=1
**devattr s=5800,258 d=5800,258
X102 a_n1236_n9479.t5 a_n1236_n9479.t4 vss.t42 vss.t0 sky130_fd_pr__nfet_01v8_lvt ad=0 pd=0 as=0 ps=0 w=4 l=1
**devattr s=23200,858 d=23200,858
X103 OTA_vref_0.OTA_vref_stage2_0.vref0.t27 OTA_vref_0.OTA_vref_stage1_0.sky130_fd_pr__rf_pnp_05v5_W3p40L3p40_0.Emitter.t26 OTA_vref_0.OTA_vref_stage2_0.vr.t7 vss.t1 sky130_fd_pr__nfet_01v8_lvt ad=0 pd=0 as=0 ps=0 w=4 l=1
**devattr s=46400,1716 d=23200,858
X104 vcc.t23 OTA_stage1_0.vd2.t0 3rd_3_OTA_0.vd1.t0 vcc.t21 sky130_fd_pr__pfet_01v8_lvt ad=0 pd=0 as=0 ps=0 w=1.8 l=18
**devattr s=20880,836 d=10440,418
X105 vcc.t10 OTA_vref_0.OTA_vref_stage2_0.vr.t0 OTA_vref_0.OTA_vref_stage2_0.vr.t1 vcc.t9 sky130_fd_pr__pfet_01v8_lvt ad=0 pd=0 as=0 ps=0 w=0.5 l=2
**devattr s=5800,316 d=2900,158
X106 a_n1236_n9479.t36 OTA_vref_0.OTA_vref_stage1_0.sky130_fd_pr__rf_pnp_05v5_W3p40L3p40_0.Emitter.t27 OTA_vref_0.OTA_vref_stage2_0.vref0.t5 vss.t0 sky130_fd_pr__nfet_01v8_lvt ad=0 pd=0 as=0 ps=0 w=4 l=1
**devattr s=23200,858 d=23200,858
X107 OTA_vref_0.OTA_vref_stage2_0.vref0.t19 OTA_vref_0.OTA_vref_stage1_0.sky130_fd_pr__rf_pnp_05v5_W3p40L3p40_0.Emitter.t28 a_n1236_n9479.t35 vss.t1 sky130_fd_pr__nfet_01v8_lvt ad=0 pd=0 as=0 ps=0 w=4 l=1
**devattr s=23200,858 d=23200,858
X108 a_2382_n5578# a_2382_n5578# a_2470_n5378# vss.t16 sky130_fd_pr__nfet_01v8_lvt ad=0.145 pd=1.29 as=0.145 ps=1.29 w=1 l=1
**devattr s=5800,258 d=5800,258
X109 a_n1236_n9479.t3 a_n1236_n9479.t2 vss.t40 vss.t0 sky130_fd_pr__nfet_01v8_lvt ad=0 pd=0 as=0 ps=0 w=4 l=1
**devattr s=23200,858 d=23200,858
X110 OTA_vref_0.OTA_vref_stage2_0.vref0.t15 OTA_vref_0.OTA_vref_stage1_0.sky130_fd_pr__rf_pnp_05v5_W3p40L3p40_0.Emitter.t29 a_n1236_n9479.t34 vss.t1 sky130_fd_pr__nfet_01v8_lvt ad=0 pd=0 as=0 ps=0 w=4 l=1
**devattr s=23200,858 d=23200,858
X111 3rd_3_OTA_0.vd4.t7 3rd_3_OTA_0.vd1.t6 a_n1050_166.t11 vcc.t24 sky130_fd_pr__pfet_01v8_lvt ad=0 pd=0 as=0 ps=0 w=15 l=1.9
**devattr s=87000,3058 d=87000,3058
X112 OTA_vref_0.vb1.t0 a_2382_n6868# a_2382_n6868# vss.t9 sky130_fd_pr__nfet_01v8_lvt ad=0 pd=0 as=0.145 ps=1.29 w=1 l=1
**devattr s=5800,258 d=5800,258
X113 3rd_3_OTA_0.vb OTA_vref_0.OTA_vref_stage2_0.vr.t25 vcc.t1 vcc.t0 sky130_fd_pr__pfet_01v8_lvt ad=0.29 pd=2.58 as=0 ps=0 w=1 l=2
**devattr s=11600,516 d=11600,516
X114 3rd_3_OTA_0.vd4.t6 3rd_3_OTA_0.vd1.t7 a_n1050_166.t7 vcc.t29 sky130_fd_pr__pfet_01v8_lvt ad=0 pd=0 as=0 ps=0 w=15 l=1.9
**devattr s=87000,3058 d=174000,6116
X115 vcc.t22 OTA_stage1_0.vd2.t0 OTA_stage1_0.vd2.t1 vcc.t21 sky130_fd_pr__pfet_01v8_lvt ad=0 pd=0 as=0 ps=0 w=1.8 l=18
**devattr s=20880,836 d=10440,418
X116 vcc.t42 a_7434_495.t6 a_7434_495.t7 vcc.t11 sky130_fd_pr__pfet_01v8_lvt ad=0 pd=0 as=0 ps=0 w=2.5 l=5
**devattr s=29000,1116 d=14500,558
X117 a_9040_n3397# 3rd_3_OTA_0.vb vss.t67 vss.t63 sky130_fd_pr__nfet_01v8 ad=1.048143 pd=7.775429 as=0 ps=0 w=5.5 l=1.5
**devattr s=31900,1158 d=63800,2316
X118 OTA_vref_0.OTA_vref_stage2_0.vref0.t0 OTA_vref_0.OTA_vref_stage1_0.sky130_fd_pr__rf_pnp_05v5_W3p40L3p40_0.Emitter.t30 OTA_vref_0.OTA_vref_stage2_0.vr.t6 vss.t0 sky130_fd_pr__nfet_01v8_lvt ad=0 pd=0 as=0 ps=0 w=4 l=1
**devattr s=23200,858 d=23200,858
X119 3rd_3_OTA_0.vd4.t1 3rd_3_OTA_0.vd3.t17 vss.t27 vss.t26 sky130_fd_pr__nfet_01v8_lvt ad=0 pd=0 as=0 ps=0 w=1.5 l=9.4
**devattr s=8700,358 d=8700,358
X120 a_n1236_n9479.t33 OTA_vref_0.OTA_vref_stage1_0.sky130_fd_pr__rf_pnp_05v5_W3p40L3p40_0.Emitter.t31 OTA_vref_0.OTA_vref_stage2_0.vref0.t29 vss.t1 sky130_fd_pr__nfet_01v8_lvt ad=0 pd=0 as=0 ps=0 w=4 l=1
**devattr s=23200,858 d=23200,858
X121 a_n10077_1624# 3rd_3_OTA_0.vb vss.t66 vss.t65 sky130_fd_pr__nfet_01v8 ad=0.483333 pd=3.526667 as=0 ps=0 w=3 l=5
**devattr s=34800,1316 d=34800,1316
X122 OTA_vref_0.OTA_vref_stage2_0.vref0.t14 OTA_vref_0.OTA_vref_stage1_0.sky130_fd_pr__rf_pnp_05v5_W3p40L3p40_0.Emitter.t32 OTA_vref_0.OTA_vref_stage2_0.vr.t5 vss.t0 sky130_fd_pr__nfet_01v8_lvt ad=0 pd=0 as=0 ps=0 w=4 l=1
**devattr s=23200,858 d=23200,858
X123 a_9040_n3397# 3rd_3_OTA_0.vd3.t18 a_7434_495.t1 vss.t25 sky130_fd_pr__nfet_01v8_lvt ad=0.571714 pd=4.241143 as=0 ps=0 w=3 l=2
**devattr s=17400,658 d=17400,658
X124 a_n1236_n9479.t32 OTA_vref_0.OTA_vref_stage1_0.sky130_fd_pr__rf_pnp_05v5_W3p40L3p40_0.Emitter.t33 OTA_vref_0.OTA_vref_stage2_0.vref0.t24 vss.t1 sky130_fd_pr__nfet_01v8_lvt ad=0 pd=0 as=0 ps=0 w=4 l=1
**devattr s=23200,858 d=23200,858
X125 a_11275_n2439.t0 vo3.t0 vss.t5 sky130_fd_pr__res_xhigh_po_0p35 l=1.2
X126 a_2382_n4288# OTA_vref_0.OTA_vref_stage2_0.vr.t26 vcc.t37 vcc.t0 sky130_fd_pr__pfet_01v8_lvt ad=0.29 pd=2.58 as=0 ps=0 w=1 l=2
**devattr s=11600,516 d=11600,516
X127 OTA_vref_0.OTA_vref_stage2_0.vr.t4 OTA_vref_0.OTA_vref_stage1_0.sky130_fd_pr__rf_pnp_05v5_W3p40L3p40_0.Emitter.t34 OTA_vref_0.OTA_vref_stage2_0.vref0.t16 vss.t1 sky130_fd_pr__nfet_01v8_lvt ad=0 pd=0 as=0 ps=0 w=4 l=1
**devattr s=23200,858 d=23200,858
X128 a_7434_495.t0 3rd_3_OTA_0.vd3.t19 a_9040_n3397# vss.t24 sky130_fd_pr__nfet_01v8_lvt ad=0 pd=0 as=0.571714 ps=4.241143 w=3 l=2
**devattr s=17400,658 d=34800,1316
X129 vss.t64 3rd_3_OTA_0.vb a_9040_n3397# vss.t63 sky130_fd_pr__nfet_01v8 ad=0 pd=0 as=1.048143 ps=7.775429 w=5.5 l=1.5
**devattr s=63800,2316 d=31900,1158
X130 a_2470_n5378# a_2382_n5578# a_2382_n5578# vss.t15 sky130_fd_pr__nfet_01v8_lvt ad=0.145 pd=1.29 as=0.145 ps=1.29 w=1 l=1
**devattr s=5800,258 d=5800,258
X131 a_n1236_n9479.t1 a_n1236_n9479.t0 vss.t39 vss.t0 sky130_fd_pr__nfet_01v8_lvt ad=0 pd=0 as=0 ps=0 w=4 l=1
**devattr s=46400,1716 d=23200,858
R0 3rd_3_OTA_0.vd3.n2 3rd_3_OTA_0.vd3.t8 60.3532
R1 3rd_3_OTA_0.vd3.n1 3rd_3_OTA_0.vd3.t4 60.3532
R2 3rd_3_OTA_0.vd3.n3 3rd_3_OTA_0.vd3.n10 48.5755
R3 3rd_3_OTA_0.vd3.n0 3rd_3_OTA_0.vd3.t19 44.0616
R4 3rd_3_OTA_0.vd3.n0 3rd_3_OTA_0.vd3.t13 44.0379
R5 3rd_3_OTA_0.vd3.n0 3rd_3_OTA_0.vd3.t18 44.0379
R6 3rd_3_OTA_0.vd3 3rd_3_OTA_0.vd3.t12 43.8241
R7 3rd_3_OTA_0.vd3.n5 3rd_3_OTA_0.vd3.t0 19.1315
R8 3rd_3_OTA_0.vd3.n5 3rd_3_OTA_0.vd3.t11 18.308
R9 3rd_3_OTA_0.vd3.n5 3rd_3_OTA_0.vd3.n6 16.2734
R10 3rd_3_OTA_0.vd3.n13 3rd_3_OTA_0.vd3.n1 14.6534
R11 3rd_3_OTA_0.vd3.n10 3rd_3_OTA_0.vd3.t6 11.6005
R12 3rd_3_OTA_0.vd3.n10 3rd_3_OTA_0.vd3.t2 11.6005
R13 3rd_3_OTA_0.vd3 3rd_3_OTA_0.vd3.n1 11.2227
R14 3rd_3_OTA_0.vd3.n3 3rd_3_OTA_0.vd3.n7 8.08817
R15 3rd_3_OTA_0.vd3 3rd_3_OTA_0.vd3.n2 7.9105
R16 3rd_3_OTA_0.vd3.n8 3rd_3_OTA_0.vd3.t7 3.58326
R17 3rd_3_OTA_0.vd3.n9 3rd_3_OTA_0.vd3.t15 3.58326
R18 3rd_3_OTA_0.vd3.n11 3rd_3_OTA_0.vd3.t17 3.58326
R19 3rd_3_OTA_0.vd3.n12 3rd_3_OTA_0.vd3.t3 3.58326
R20 3rd_3_OTA_0.vd3.n8 3rd_3_OTA_0.vd3.t16 3.58267
R21 3rd_3_OTA_0.vd3.n9 3rd_3_OTA_0.vd3.t5 3.58267
R22 3rd_3_OTA_0.vd3.n11 3rd_3_OTA_0.vd3.t1 3.58267
R23 3rd_3_OTA_0.vd3.n12 3rd_3_OTA_0.vd3.t14 3.58267
R24 3rd_3_OTA_0.vd3.n4 3rd_3_OTA_0.vd3.n13 3.54985
R25 3rd_3_OTA_0.vd3.n7 3rd_3_OTA_0.vd3.n5 2.67636
R26 3rd_3_OTA_0.vd3.n1 3rd_3_OTA_0.vd3.n12 2.60735
R27 3rd_3_OTA_0.vd3.n2 3rd_3_OTA_0.vd3.n8 2.58162
R28 3rd_3_OTA_0.vd3 3rd_3_OTA_0.vd3.n0 2.5555
R29 3rd_3_OTA_0.vd3 3rd_3_OTA_0.vd3.n7 2.29713
R30 3rd_3_OTA_0.vd3.n6 3rd_3_OTA_0.vd3.t10 1.90483
R31 3rd_3_OTA_0.vd3.n6 3rd_3_OTA_0.vd3.t9 1.90483
R32 3rd_3_OTA_0.vd3.n2 3rd_3_OTA_0.vd3.n4 1.69798
R33 3rd_3_OTA_0.vd3.n13 3rd_3_OTA_0.vd3.n11 1.61224
R34 3rd_3_OTA_0.vd3.n4 3rd_3_OTA_0.vd3.n9 1.61224
R35 3rd_3_OTA_0.vd3.n4 3rd_3_OTA_0.vd3.n3 1.22519
R36 a_7434_495.n1 a_7434_495.t12 387.724
R37 a_7434_495.n13 a_7434_495.t11 96.4663
R38 a_7434_495.n10 a_7434_495.n9 84.9005
R39 a_7434_495.n17 a_7434_495.t0 38.5275
R40 a_7434_495.t3 a_7434_495.n17 37.908
R41 a_7434_495.n16 a_7434_495.n15 32.1023
R42 a_7434_495.n8 a_7434_495.t8 13.386
R43 a_7434_495.n7 a_7434_495.t4 13.3552
R44 a_7434_495.n12 a_7434_495.t10 13.3552
R45 a_7434_495.n4 a_7434_495.t6 13.3139
R46 a_7434_495.n9 a_7434_495.t5 11.4265
R47 a_7434_495.n9 a_7434_495.t9 11.4265
R48 a_7434_495.n0 a_7434_495.n4 7.96494
R49 a_7434_495.n11 a_7434_495.n2 6.81377
R50 a_7434_495.n14 a_7434_495.n13 6.51669
R51 a_7434_495.n1 a_7434_495.n7 5.8066
R52 a_7434_495.n15 a_7434_495.t1 5.8005
R53 a_7434_495.n15 a_7434_495.t2 5.8005
R54 a_7434_495.n8 a_7434_495.n0 5.77549
R55 a_7434_495.n12 a_7434_495.n1 5.58783
R56 a_7434_495.n4 a_7434_495.n3 0.495597
R57 a_7434_495.n3 a_7434_495.n2 4.99728
R58 a_7434_495.n10 a_7434_495.n5 0.783109
R59 a_7434_495.n7 a_7434_495.n5 0.638655
R60 a_7434_495.n7 a_7434_495.n6 0.592891
R61 a_7434_495.n6 a_7434_495.n8 0.541261
R62 a_7434_495.n8 a_7434_495.n5 0.510015
R63 a_7434_495.n13 a_7434_495.n12 0.501908
R64 a_7434_495.n16 a_7434_495.n14 0.47591
R65 a_7434_495.n14 a_7434_495.n2 0.4047
R66 a_7434_495.n17 a_7434_495.n16 0.393745
R67 a_7434_495.n6 a_7434_495.n11 0.293331
R68 a_7434_495.n11 a_7434_495.n10 0.25257
R69 a_7434_495.t7 a_7434_495.n3 96.4689
R70 a_7434_495.n1 a_7434_495.n0 1.5605
R71 vss.n53 vss.t26 6.51798e+06
R72 vss.n311 vss.n57 5.4843e+06
R73 vss.n57 vss.n54 3.3e+06
R74 vss.n54 vss.n53 2.376e+06
R75 vss.n313 vss.n312 1.23016e+06
R76 vss.n313 vss.n54 402600
R77 vss.n312 vss.n311 354428
R78 vss.n367 vss.n315 156933
R79 vss.n465 vss.n6 147329
R80 vss.n336 vss.n315 114006
R81 vss.n466 vss.n465 72897.2
R82 vss.t26 vss.n6 36497.6
R83 vss.n467 vss.n466 31912.6
R84 vss.n463 vss.n7 27614.8
R85 vss.n463 vss.n8 27609
R86 vss.n450 vss.n7 27609
R87 vss.n450 vss.n8 27603.2
R88 vss.n443 vss.n33 26954.2
R89 vss.n422 vss.n33 26954.2
R90 vss.n443 vss.n34 26948.4
R91 vss.n422 vss.n34 26948.4
R92 vss.n437 vss.n424 25442
R93 vss.n424 vss.n423 25442
R94 vss.n437 vss.n425 25436.2
R95 vss.n425 vss.n423 25436.2
R96 vss.n336 vss.n6 24232.3
R97 vss.n447 vss.n28 17753.2
R98 vss.n447 vss.n29 17753.2
R99 vss.n309 vss.n28 17753.2
R100 vss.n309 vss.n29 17753.2
R101 vss.n466 vss.n5 16119.1
R102 vss.n317 vss.n316 12277.7
R103 vss.n398 vss.n316 12277.7
R104 vss.n397 vss.n317 12277.7
R105 vss.n398 vss.n397 12277.7
R106 vss.n337 vss.n336 9391.71
R107 vss.n394 vss.n49 6732.77
R108 vss.n401 vss.n49 6732.77
R109 vss.n394 vss.n50 6732.77
R110 vss.n401 vss.n50 6732.77
R111 vss.n367 vss.n337 6373.53
R112 vss.n432 vss.n3 6275.03
R113 vss.n468 vss.n3 6275.03
R114 vss.n432 vss.n4 6275.03
R115 vss.n468 vss.n4 6275.03
R116 vss.n57 vss.n56 5636.95
R117 vss.n53 vss.n52 5636.95
R118 vss.n347 vss.n334 4519.41
R119 vss.n347 vss.n335 4519.41
R120 vss.n369 vss.n334 4519.41
R121 vss.n369 vss.n335 4519.41
R122 vss.n465 vss.n464 4064.84
R123 vss.n344 vss.n338 3412.74
R124 vss.n344 vss.n339 3412.74
R125 vss.n365 vss.n338 3406.94
R126 vss.n365 vss.n339 3406.94
R127 vss.n346 vss.n337 2223.62
R128 vss.n449 vss.n448 2022.67
R129 vss.n372 vss.n332 1960.4
R130 vss.n440 vss.n439 1944.26
R131 vss.t41 vss.n5 1579.6
R132 vss.n430 vss.t58 1579.6
R133 vss.n220 vss.t0 1564.71
R134 vss.n439 vss.t61 1324.96
R135 vss.n438 vss.t6 1324.96
R136 vss.n261 vss.n94 1305.6
R137 vss.n446 vss.n445 1245.36
R138 vss.n221 vss.n220 1058.82
R139 vss.n221 vss.n104 1058.82
R140 vss.n234 vss.n104 1058.82
R141 vss.n235 vss.n234 1058.82
R142 vss.n236 vss.n235 1058.82
R143 vss.n238 vss.n97 1058.82
R144 vss.n251 vss.n97 1058.82
R145 vss.n252 vss.n251 1058.82
R146 vss.n266 vss.n252 1058.82
R147 vss.n266 vss.n265 1058.82
R148 vss.n464 vss.t26 968.468
R149 vss.n265 vss.n264 951.085
R150 vss.n23 vss.n20 903.91
R151 vss.n449 vss.t26 783.348
R152 vss.n315 vss.n314 767.418
R153 vss.n236 vss.t0 717.648
R154 vss.t30 vss.n313 687.957
R155 vss.n307 vss.n306 635.574
R156 vss.n215 vss.n214 588.759
R157 vss.n218 vss.n111 588.759
R158 vss.n355 vss.n354 588.515
R159 vss.n255 vss.n96 585
R160 vss.n265 vss.n96 585
R161 vss.n268 vss.n267 585
R162 vss.n267 vss.n266 585
R163 vss.n95 vss.n93 585
R164 vss.n252 vss.n95 585
R165 vss.n250 vss.n249 585
R166 vss.n251 vss.n250 585
R167 vss.n99 vss.n98 585
R168 vss.n98 vss.n97 585
R169 vss.n240 vss.n239 585
R170 vss.n239 vss.n238 585
R171 vss.n237 vss.n102 585
R172 vss.n237 vss.n236 585
R173 vss.n107 vss.n103 585
R174 vss.n235 vss.n103 585
R175 vss.n233 vss.n232 585
R176 vss.n234 vss.n233 585
R177 vss.n224 vss.n105 585
R178 vss.n105 vss.n104 585
R179 vss.n223 vss.n222 585
R180 vss.n222 vss.n221 585
R181 vss.n219 vss.n109 585
R182 vss.n220 vss.n219 585
R183 vss.n213 vss.n117 585
R184 vss.n120 vss.n116 585
R185 vss.n217 vss.n116 585
R186 vss.n208 vss.n207 585
R187 vss.n200 vss.n123 585
R188 vss.n202 vss.n201 585
R189 vss.n193 vss.n125 585
R190 vss.n195 vss.n194 585