* NGSPICE file created from 2_OTA_flat.ext - technology: sky130A

.subckt x2_OTA_flat vss vcc vo vin_p vin_n
X0 OTA_vref_0.OTA_vref_stage2_0.vref0.t20 OTA_vref_0.OTA_vref_stage1_0.sky130_fd_pr__rf_pnp_05v5_W3p40L3p40_0.Emitter.t3 a_n27_n4200.t47 vss.t65 sky130_fd_pr__nfet_01v8_lvt ad=0 pd=0 as=0 ps=0 w=4 l=1
**devattr s=23200,858 d=23200,858
X1 OTA_vref_0.OTA_vref_stage2_0.vref0.t24 OTA_vref_0.OTA_vref_stage1_0.sky130_fd_pr__rf_pnp_05v5_W3p40L3p40_0.Emitter.t4 OTA_vref_0.OTA_vref_stage2_0.vr.t19 vss.t42 sky130_fd_pr__nfet_01v8_lvt ad=0 pd=0 as=0 ps=0 w=4 l=1
**devattr s=23200,858 d=23200,858
X2 OTA_vref_0.OTA_vref_stage2_0.vr.t18 OTA_vref_0.OTA_vref_stage1_0.sky130_fd_pr__rf_pnp_05v5_W3p40L3p40_0.Emitter.t5 OTA_vref_0.OTA_vref_stage2_0.vref0.t25 vss.t40 sky130_fd_pr__nfet_01v8_lvt ad=0 pd=0 as=0 ps=0 w=4 l=1
**devattr s=23200,858 d=23200,858
X3 a_n832_n2063# a_n832_n2063# OTA_vref_0.vb vss.t25 sky130_fd_pr__nfet_01v8_lvt ad=0.145 pd=1.29 as=0.174 ps=1.548 w=1 l=1
**devattr s=11600,516 d=5800,258
X4 OTA_vref_0.OTA_vref_stage2_0.vref0.t19 OTA_vref_0.OTA_vref_stage1_0.sky130_fd_pr__rf_pnp_05v5_W3p40L3p40_0.Emitter.t6 a_n27_n4200.t45 vss.t64 sky130_fd_pr__nfet_01v8_lvt ad=0 pd=0 as=0 ps=0 w=4 l=1
**devattr s=23200,858 d=23200,858
X5 a_n8089_3635# vin_p.t0 OTA_stage2_0.vd2.t0 vss.t0 sky130_fd_pr__nfet_01v8_lvt ad=0.966667 pd=7.053333 as=0 ps=0 w=6 l=12
**devattr s=69600,2516 d=34800,1258
X6 OTA_vref_0.OTA_vref_stage2_0.vr.t17 OTA_vref_0.OTA_vref_stage1_0.sky130_fd_pr__rf_pnp_05v5_W3p40L3p40_0.Emitter.t7 OTA_vref_0.OTA_vref_stage2_0.vref0.t3 vss.t36 sky130_fd_pr__nfet_01v8_lvt ad=0 pd=0 as=0 ps=0 w=4 l=1
**devattr s=23200,858 d=23200,858
X7 a_2980_n1975# a_3038_n2063# a_3038_n2063# vss.t78 sky130_fd_pr__nfet_01v8_lvt ad=0.145 pd=1.29 as=0.145 ps=1.29 w=1 l=1
**devattr s=5800,258 d=5800,258
X8 a_458_n2063# a_458_n2063# a_400_n1975# vss.t19 sky130_fd_pr__nfet_01v8_lvt ad=0.145 pd=1.29 as=0.145 ps=1.29 w=1 l=1
**devattr s=5800,258 d=5800,258
X9 a_2980_n1975# a_1748_n2063# OTA_vref_0.vb1.t4 vss.t9 sky130_fd_pr__nfet_01v8_lvt ad=0.145 pd=1.29 as=0 ps=0 w=1 l=1
**devattr s=5800,258 d=5800,258
X10 a_400_n1975# a_458_n2063# a_458_n2063# vss.t18 sky130_fd_pr__nfet_01v8_lvt ad=0.145 pd=1.29 as=0.145 ps=1.29 w=1 l=1
**devattr s=5800,258 d=5800,258
X11 a_959_2177.t3 OTA_stage2_0.vd1.t5 vo.t1 vcc.t21 sky130_fd_pr__pfet_01v8_lvt ad=0 pd=0 as=0 ps=0 w=15 l=1.9
**devattr s=87000,3058 d=87000,3058
X12 OTA_vref_0.vb1.t3 a_1748_n2063# a_1748_n2063# vss.t8 sky130_fd_pr__nfet_01v8_lvt ad=0 pd=0 as=0.145 ps=1.29 w=1 l=1
**devattr s=5800,258 d=5800,258
X13 OTA_vref_0.vb1.t5 a_458_n2063# a_400_n1975# vss.t17 sky130_fd_pr__nfet_01v8_lvt ad=0 pd=0 as=0.145 ps=1.29 w=1 l=1
**devattr s=5800,258 d=5800,258
X14 a_959_2177.t2 OTA_stage2_0.vd1.t6 vo.t3 vcc.t20 sky130_fd_pr__pfet_01v8_lvt ad=0 pd=0 as=0 ps=0 w=15 l=1.9
**devattr s=174000,6116 d=87000,3058
X15 vcc.t17 OTA_vref_0.OTA_vref_stage2_0.vr.t20 a_458_n2063# vcc.t16 sky130_fd_pr__pfet_01v8_lvt ad=0 pd=0 as=0.29 ps=2.58 w=1 l=2
**devattr s=11600,516 d=11600,516
X16 vcc.t15 OTA_vref_0.OTA_vref_stage2_0.vr.t21 OTA_vref_0.vb vcc.t14 sky130_fd_pr__pfet_01v8_lvt ad=0 pd=0 as=0.29 ps=2.58 w=1 l=2
**devattr s=11600,516 d=11600,516
X17 a_400_n1975# a_458_n2063# a_458_n2063# vss.t16 sky130_fd_pr__nfet_01v8_lvt ad=0.145 pd=1.29 as=0.145 ps=1.29 w=1 l=1
**devattr s=5800,258 d=5800,258
X18 OTA_vref_0.OTA_vref_stage2_0.vref0.t18 OTA_vref_0.OTA_vref_stage1_0.sky130_fd_pr__rf_pnp_05v5_W3p40L3p40_0.Emitter.t8 a_n27_n4200.t46 vss.t63 sky130_fd_pr__nfet_01v8_lvt ad=0 pd=0 as=0 ps=0 w=4 l=1
**devattr s=23200,858 d=23200,858
X19 OTA_vref_0.OTA_vref_stage2_0.vr.t16 OTA_vref_0.OTA_vref_stage1_0.sky130_fd_pr__rf_pnp_05v5_W3p40L3p40_0.Emitter.t9 OTA_vref_0.OTA_vref_stage2_0.vref0.t26 vss.t52 sky130_fd_pr__nfet_01v8_lvt ad=0 pd=0 as=0 ps=0 w=4 l=1
**devattr s=23200,858 d=23200,858
X20 vss.t67 a_521_2177.t12 vo.t6 vss.t66 sky130_fd_pr__nfet_01v8_lvt ad=0 pd=0 as=0 ps=0 w=1.5 l=9.4
**devattr s=8700,358 d=8700,358
X21 vss.t72 a_521_2177.t13 vo.t7 vss.t71 sky130_fd_pr__nfet_01v8_lvt ad=0 pd=0 as=0 ps=0 w=1.5 l=9.4
**devattr s=17400,716 d=8700,358
X22 a_521_2177.t11 OTA_stage2_0.vd2.t3 a_959_2177.t6 vcc.t19 sky130_fd_pr__pfet_01v8_lvt ad=0 pd=0 as=0 ps=0 w=15 l=1.9
**devattr s=87000,3058 d=87000,3058
X23 OTA_vref_0.OTA_vref_stage2_0.vref0.t27 OTA_vref_0.OTA_vref_stage1_0.sky130_fd_pr__rf_pnp_05v5_W3p40L3p40_0.Emitter.t10 OTA_vref_0.OTA_vref_stage2_0.vr.t15 vss.t34 sky130_fd_pr__nfet_01v8_lvt ad=0 pd=0 as=0 ps=0 w=4 l=1
**devattr s=23200,858 d=23200,858
X24 OTA_vref_0.OTA_vref_stage2_0.vr.t14 OTA_vref_0.OTA_vref_stage1_0.sky130_fd_pr__rf_pnp_05v5_W3p40L3p40_0.Emitter.t11 OTA_vref_0.OTA_vref_stage2_0.vref0.t4 vss.t46 sky130_fd_pr__nfet_01v8_lvt ad=0 pd=0 as=0 ps=0 w=4 l=1
**devattr s=23200,858 d=23200,858
X25 vcc.t27 OTA_stage2_0.vd2.t0 OTA_stage2_0.vd2.t1 vcc.t25 sky130_fd_pr__pfet_01v8_lvt ad=0 pd=0 as=0 ps=0 w=1.8 l=18
**devattr s=20880,836 d=10440,418
X26 a_521_2177.t7 a_521_2177.t6 vss.t3 vss.t1 sky130_fd_pr__nfet_01v8_lvt ad=0 pd=0 as=0 ps=0 w=1.5 l=9.4
**devattr s=8700,358 d=8700,358
X27 OTA_vref_0.OTA_vref_stage2_0.vref0.t0 OTA_vref_0.OTA_vref_stage1_0.sky130_fd_pr__rf_pnp_05v5_W3p40L3p40_0.Emitter.t12 OTA_vref_0.OTA_vref_stage2_0.vr.t13 vss.t44 sky130_fd_pr__nfet_01v8_lvt ad=0 pd=0 as=0 ps=0 w=4 l=1
**devattr s=23200,858 d=23200,858
X28 OTA_vref_0.OTA_vref_stage2_0.vref0.t28 OTA_vref_0.OTA_vref_stage1_0.sky130_fd_pr__rf_pnp_05v5_W3p40L3p40_0.Emitter.t13 OTA_vref_0.OTA_vref_stage2_0.vr.t12 vss.t30 sky130_fd_pr__nfet_01v8_lvt ad=0 pd=0 as=0 ps=0 w=4 l=1
**devattr s=23200,858 d=23200,858
X29 a_959_2177.t10 OTA_vref_0.vb1.t6 vcc.t35 vcc.t34 sky130_fd_pr__pfet_01v8 ad=0 pd=0 as=0 ps=0 w=7 l=1.8
**devattr s=40600,1458 d=40600,1458
X30 a_n27_n4200.t44 OTA_vref_0.OTA_vref_stage1_0.sky130_fd_pr__rf_pnp_05v5_W3p40L3p40_0.Emitter.t14 OTA_vref_0.OTA_vref_stage2_0.vref0.t17 vss.t59 sky130_fd_pr__nfet_01v8_lvt ad=0 pd=0 as=0 ps=0 w=4 l=1
**devattr s=23200,858 d=23200,858
X31 a_8294_3178.t1 OTA_stage2_0.vd1.t2 sky130_fd_pr__cap_mim_m3_1 l=20 w=20
X32 OTA_vref_0.OTA_vref_stage2_0.vref0.t21 OTA_vref_0.OTA_vref_stage1_0.sky130_fd_pr__rf_pnp_05v5_W3p40L3p40_0.Emitter.t15 OTA_vref_0.OTA_vref_stage2_0.vr.t11 vss.t38 sky130_fd_pr__nfet_01v8_lvt ad=0 pd=0 as=0 ps=0 w=4 l=1
**devattr s=23200,858 d=23200,858
X33 vcc.t33 OTA_vref_0.vb1.t7 a_959_2177.t8 vcc.t32 sky130_fd_pr__pfet_01v8 ad=0 pd=0 as=0 ps=0 w=7 l=1.8
**devattr s=81200,2916 d=40600,1458
X34 vss.t57 a_n27_n4200.t26 a_n27_n4200.t27 vss.t56 sky130_fd_pr__nfet_01v8_lvt ad=0 pd=0 as=0 ps=0 w=4 l=1
**devattr s=23200,858 d=23200,858
X35 vo.t8 a_521_2177.t14 vss.t79 vss.t10 sky130_fd_pr__nfet_01v8_lvt ad=0 pd=0 as=0 ps=0 w=1.5 l=9.4
**devattr s=8700,358 d=17400,716
X36 a_n27_n4200.t38 OTA_vref_0.OTA_vref_stage1_0.sky130_fd_pr__rf_pnp_05v5_W3p40L3p40_0.Emitter.t16 OTA_vref_0.OTA_vref_stage2_0.vref0.t16 vss.t62 sky130_fd_pr__nfet_01v8_lvt ad=0 pd=0 as=0 ps=0 w=4 l=1
**devattr s=23200,858 d=23200,858
X37 a_n27_n4200.t39 OTA_vref_0.OTA_vref_stage1_0.sky130_fd_pr__rf_pnp_05v5_W3p40L3p40_0.Emitter.t17 OTA_vref_0.OTA_vref_stage2_0.vref0.t15 vss.t65 sky130_fd_pr__nfet_01v8_lvt ad=0 pd=0 as=0 ps=0 w=4 l=1
**devattr s=23200,858 d=23200,858
X38 a_n27_n4200.t40 OTA_vref_0.OTA_vref_stage1_0.sky130_fd_pr__rf_pnp_05v5_W3p40L3p40_0.Emitter.t18 OTA_vref_0.OTA_vref_stage2_0.vref0.t14 vss.t64 sky130_fd_pr__nfet_01v8_lvt ad=0 pd=0 as=0 ps=0 w=4 l=1
**devattr s=23200,858 d=23200,858
X39 vcc.t26 OTA_stage2_0.vd2.t0 OTA_stage2_0.vd1.t3 vcc.t25 sky130_fd_pr__pfet_01v8_lvt ad=0 pd=0 as=0 ps=0 w=1.8 l=18
**devattr s=20880,836 d=10440,418
X40 a_n27_n4200.t41 OTA_vref_0.OTA_vref_stage1_0.sky130_fd_pr__rf_pnp_05v5_W3p40L3p40_0.Emitter.t19 OTA_vref_0.OTA_vref_stage2_0.vref0.t13 vss.t61 sky130_fd_pr__nfet_01v8_lvt ad=0 pd=0 as=0 ps=0 w=4 l=1
**devattr s=23200,858 d=23200,858
X41 a_521_2177.t10 OTA_stage2_0.vd2.t4 a_959_2177.t4 vcc.t18 sky130_fd_pr__pfet_01v8_lvt ad=0 pd=0 as=0 ps=0 w=15 l=1.9
**devattr s=87000,3058 d=174000,6116
X42 a_2980_n1975# a_3038_n2063# a_3038_n2063# vss.t77 sky130_fd_pr__nfet_01v8_lvt ad=0.145 pd=1.29 as=0.145 ps=1.29 w=1 l=1
**devattr s=5800,258 d=5800,258
X43 OTA_vref_0.OTA_vref_stage2_0.vr.t10 OTA_vref_0.OTA_vref_stage1_0.sky130_fd_pr__rf_pnp_05v5_W3p40L3p40_0.Emitter.t20 OTA_vref_0.OTA_vref_stage2_0.vref0.t22 vss.t32 sky130_fd_pr__nfet_01v8_lvt ad=0 pd=0 as=0 ps=0 w=4 l=1
**devattr s=23200,858 d=46400,1716
X44 a_959_2177.t11 OTA_vref_0.vb1.t8 vcc.t31 vcc.t30 sky130_fd_pr__pfet_01v8 ad=0 pd=0 as=0 ps=0 w=7 l=1.8
**devattr s=40600,1458 d=81200,2916
X45 a_n27_n4200.t42 OTA_vref_0.OTA_vref_stage1_0.sky130_fd_pr__rf_pnp_05v5_W3p40L3p40_0.Emitter.t21 OTA_vref_0.OTA_vref_stage2_0.vref0.t12 vss.t60 sky130_fd_pr__nfet_01v8_lvt ad=0 pd=0 as=0 ps=0 w=4 l=1
**devattr s=23200,858 d=23200,858
X46 OTA_stage2_0.vd1.t4 OTA_stage2_0.vd2.t0 vcc.t24 vcc.t22 sky130_fd_pr__pfet_01v8_lvt ad=0 pd=0 as=0 ps=0 w=1.8 l=18
**devattr s=10440,418 d=20880,836
X47 a_3038_n2063# a_3038_n2063# a_2980_n1975# vss.t76 sky130_fd_pr__nfet_01v8_lvt ad=0.145 pd=1.29 as=0.145 ps=1.29 w=1 l=1
**devattr s=5800,258 d=5800,258
X48 OTA_vref_0.OTA_vref_stage2_0.vref0.t23 OTA_vref_0.OTA_vref_stage1_0.sky130_fd_pr__rf_pnp_05v5_W3p40L3p40_0.Emitter.t22 OTA_vref_0.OTA_vref_stage2_0.vr.t9 vss.t28 sky130_fd_pr__nfet_01v8_lvt ad=0 pd=0 as=0 ps=0 w=4 l=1
**devattr s=23200,858 d=23200,858
X49 vcc.t29 OTA_vref_0.vb1.t9 a_959_2177.t9 vcc.t28 sky130_fd_pr__pfet_01v8 ad=0 pd=0 as=0 ps=0 w=7 l=1.8
**devattr s=40600,1458 d=40600,1458
X50 vss.t55 a_n27_n4200.t2 a_n27_n4200.t3 vss.t54 sky130_fd_pr__nfet_01v8_lvt ad=0 pd=0 as=0 ps=0 w=4 l=1
**devattr s=23200,858 d=23200,858
X51 a_959_2177.t5 OTA_stage2_0.vd2.t5 a_521_2177.t9 vcc.t21 sky130_fd_pr__pfet_01v8_lvt ad=0 pd=0 as=0 ps=0 w=15 l=1.9
**devattr s=87000,3058 d=87000,3058
X52 a_n27_n4200.t43 OTA_vref_0.OTA_vref_stage1_0.sky130_fd_pr__rf_pnp_05v5_W3p40L3p40_0.Emitter.t23 OTA_vref_0.OTA_vref_stage2_0.vref0.t11 vss.t63 sky130_fd_pr__nfet_01v8_lvt ad=0 pd=0 as=0 ps=0 w=4 l=1
**devattr s=23200,858 d=23200,858
X53 OTA_vref_0.OTA_vref_stage2_0.vref0.t1 OTA_vref_0.OTA_vref_stage1_0.sky130_fd_pr__rf_pnp_05v5_W3p40L3p40_0.Emitter.t24 OTA_vref_0.OTA_vref_stage2_0.vr.t8 vss.t26 sky130_fd_pr__nfet_01v8_lvt ad=0 pd=0 as=0 ps=0 w=4 l=1
**devattr s=46400,1716 d=23200,858
X54 vss.t53 a_n27_n4200.t28 a_n27_n4200.t29 vss.t52 sky130_fd_pr__nfet_01v8_lvt ad=0 pd=0 as=0 ps=0 w=4 l=1
**devattr s=23200,858 d=23200,858
X55 a_n27_n4200.t32 OTA_vref_0.OTA_vref_stage1_0.sky130_fd_pr__rf_pnp_05v5_W3p40L3p40_0.Emitter.t25 OTA_vref_0.OTA_vref_stage2_0.vref0.t10 vss.t58 sky130_fd_pr__nfet_01v8_lvt ad=0 pd=0 as=0 ps=0 w=4 l=1
**devattr s=23200,858 d=23200,858
X56 vss.t51 a_n27_n4200.t4 a_n27_n4200.t5 vss.t50 sky130_fd_pr__nfet_01v8_lvt ad=0 pd=0 as=0 ps=0 w=4 l=1
**devattr s=23200,858 d=23200,858
X57 a_n27_n4200.t7 a_n27_n4200.t6 vss.t49 vss.t48 sky130_fd_pr__nfet_01v8_lvt ad=0 pd=0 as=0 ps=0 w=4 l=1
**devattr s=23200,858 d=23200,858
X58 a_400_n1975# a_n832_n2063# OTA_vref_0.vb vss.t24 sky130_fd_pr__nfet_01v8_lvt ad=0.145 pd=1.29 as=0.174 ps=1.548 w=1 l=1
**devattr s=5800,258 d=5800,258
X59 vcc.t13 OTA_vref_0.OTA_vref_stage2_0.vr.t22 OTA_vref_0.OTA_vref_stage1_0.sky130_fd_pr__rf_pnp_05v5_W3p40L3p40_0.Emitter.t1 vcc.t12 sky130_fd_pr__pfet_01v8_lvt ad=0 pd=0 as=0 ps=0 w=1 l=1
**devattr s=11600,516 d=5800,258
X60 vss.t47 a_n27_n4200.t30 a_n27_n4200.t31 vss.t46 sky130_fd_pr__nfet_01v8_lvt ad=0 pd=0 as=0 ps=0 w=4 l=1
**devattr s=23200,858 d=23200,858
X61 a_n27_n4200.t19 a_n27_n4200.t18 vss.t45 vss.t44 sky130_fd_pr__nfet_01v8_lvt ad=0 pd=0 as=0 ps=0 w=4 l=1
**devattr s=23200,858 d=23200,858
X62 OTA_stage2_0.vd2.t0 vin_p.t1 a_n8089_3635# vss.t12 sky130_fd_pr__nfet_01v8_lvt ad=0 pd=0 as=0.966667 ps=7.053333 w=6 l=12
**devattr s=34800,1258 d=69600,2516
X63 a_n27_n4200.t15 a_n27_n4200.t14 vss.t43 vss.t42 sky130_fd_pr__nfet_01v8_lvt ad=0 pd=0 as=0 ps=0 w=4 l=1
**devattr s=23200,858 d=23200,858
X64 vss.t41 a_n27_n4200.t20 a_n27_n4200.t21 vss.t40 sky130_fd_pr__nfet_01v8_lvt ad=0 pd=0 as=0 ps=0 w=4 l=1
**devattr s=23200,858 d=23200,858
X65 a_n27_n4200.t9 a_n27_n4200.t8 vss.t39 vss.t38 sky130_fd_pr__nfet_01v8_lvt ad=0 pd=0 as=0 ps=0 w=4 l=1
**devattr s=23200,858 d=23200,858
X66 vss.t70 a_521_2177.t4 a_521_2177.t5 vss.t66 sky130_fd_pr__nfet_01v8_lvt ad=0 pd=0 as=0 ps=0 w=1.5 l=9.4
**devattr s=8700,358 d=8700,358
X67 vss.t37 a_n27_n4200.t22 a_n27_n4200.t23 vss.t36 sky130_fd_pr__nfet_01v8_lvt ad=0 pd=0 as=0 ps=0 w=4 l=1
**devattr s=23200,858 d=23200,858
X68 a_1748_n2063# a_1748_n2063# OTA_vref_0.vb1.t2 vss.t7 sky130_fd_pr__nfet_01v8_lvt ad=0.145 pd=1.29 as=0 ps=0 w=1 l=1
**devattr s=5800,258 d=5800,258
X69 a_959_2177.t7 OTA_stage2_0.vd2.t6 a_521_2177.t8 vcc.t20 sky130_fd_pr__pfet_01v8_lvt ad=0 pd=0 as=0 ps=0 w=15 l=1.9
**devattr s=174000,6116 d=87000,3058
X70 OTA_stage2_0.vd2.t2 OTA_stage2_0.vd2.t0 vcc.t23 vcc.t22 sky130_fd_pr__pfet_01v8_lvt ad=0 pd=0 as=0 ps=0 w=1.8 l=18
**devattr s=10440,418 d=20880,836
X71 OTA_vref_0.vb a_n832_n2063# a_n832_n2063# vss.t23 sky130_fd_pr__nfet_01v8_lvt ad=0.174 pd=1.548 as=0.145 ps=1.29 w=1 l=1
**devattr s=5800,258 d=5800,258
X72 OTA_stage2_0.vd1.t1 vin_n.t0 a_n8089_3635# vss.t69 sky130_fd_pr__nfet_01v8_lvt ad=0 pd=0 as=0.966667 ps=7.053333 w=6 l=12
**devattr s=34800,1258 d=69600,2516
X73 OTA_vref_0.vb a_n832_n2063# a_n832_n2063# vss.t22 sky130_fd_pr__nfet_01v8_lvt ad=0.174 pd=1.548 as=0.145 ps=1.29 w=1 l=1
**devattr s=5800,258 d=5800,258
X74 vss.t73 a_521_2177.t2 a_521_2177.t3 vss.t71 sky130_fd_pr__nfet_01v8_lvt ad=0 pd=0 as=0 ps=0 w=1.5 l=9.4
**devattr s=17400,716 d=8700,358
X75 vss.t63 vss.t68 OTA_vref_0.OTA_vref_stage1_0.sky130_fd_pr__rf_pnp_05v5_W3p40L3p40_0.Emitter.t0 sky130_fd_pr__pnp_05v5_W3p40L3p40
**devattr s=462400,2720
X76 OTA_vref_0.OTA_vref_stage2_0.vref0.t9 OTA_vref_0.OTA_vref_stage1_0.sky130_fd_pr__rf_pnp_05v5_W3p40L3p40_0.Emitter.t26 a_n27_n4200.t37 vss.t62 sky130_fd_pr__nfet_01v8_lvt ad=0 pd=0 as=0 ps=0 w=4 l=1
**devattr s=23200,858 d=23200,858
X77 a_n832_n2063# a_n832_n2063# OTA_vref_0.vb vss.t21 sky130_fd_pr__nfet_01v8_lvt ad=0.145 pd=1.29 as=0.174 ps=1.548 w=1 l=1
**devattr s=5800,258 d=5800,258
X78 a_3038_n2063# a_3038_n2063# a_2980_n1975# vss.t75 sky130_fd_pr__nfet_01v8_lvt ad=0.145 pd=1.29 as=0.145 ps=1.29 w=1 l=1
**devattr s=5800,258 d=5800,258
X79 vo.t4 OTA_stage2_0.vd1.t7 a_959_2177.t1 vcc.t19 sky130_fd_pr__pfet_01v8_lvt ad=0 pd=0 as=0 ps=0 w=15 l=1.9
**devattr s=87000,3058 d=87000,3058
X80 vo.t0 a_521_2177.t15 vss.t2 vss.t1 sky130_fd_pr__nfet_01v8_lvt ad=0 pd=0 as=0 ps=0 w=1.5 l=9.4
**devattr s=8700,358 d=8700,358
X81 a_8294_3178.t0 vo.t5 vss.t20 sky130_fd_pr__res_xhigh_po_0p35 l=1
X82 a_458_n2063# a_458_n2063# a_400_n1975# vss.t15 sky130_fd_pr__nfet_01v8_lvt ad=0.145 pd=1.29 as=0.145 ps=1.29 w=1 l=1
**devattr s=5800,258 d=5800,258
X83 a_1748_n2063# a_1748_n2063# OTA_vref_0.vb1.t1 vss.t6 sky130_fd_pr__nfet_01v8_lvt ad=0.145 pd=1.29 as=0 ps=0 w=1 l=1
**devattr s=5800,258 d=5800,258
X84 a_n27_n4200.t13 a_n27_n4200.t12 vss.t35 vss.t34 sky130_fd_pr__nfet_01v8_lvt ad=0 pd=0 as=0 ps=0 w=4 l=1
**devattr s=23200,858 d=23200,858
X85 OTA_vref_0.OTA_vref_stage2_0.vref0.t8 OTA_vref_0.OTA_vref_stage1_0.sky130_fd_pr__rf_pnp_05v5_W3p40L3p40_0.Emitter.t27 a_n27_n4200.t33 vss.t61 sky130_fd_pr__nfet_01v8_lvt ad=0 pd=0 as=0 ps=0 w=4 l=1
**devattr s=23200,858 d=23200,858
X86 vcc.t11 OTA_vref_0.OTA_vref_stage2_0.vr.t23 a_n832_n2063# vcc.t10 sky130_fd_pr__pfet_01v8_lvt ad=0 pd=0 as=0.29 ps=2.58 w=1 l=2
**devattr s=11600,516 d=11600,516
X87 vss.t33 a_n27_n4200.t24 a_n27_n4200.t25 vss.t32 sky130_fd_pr__nfet_01v8_lvt ad=0 pd=0 as=0 ps=0 w=4 l=1
**devattr s=23200,858 d=46400,1716
X88 OTA_vref_0.vb1.t0 a_1748_n2063# a_1748_n2063# vss.t5 sky130_fd_pr__nfet_01v8_lvt ad=0 pd=0 as=0.145 ps=1.29 w=1 l=1
**devattr s=5800,258 d=5800,258
X89 vcc.t7 OTA_vref_0.OTA_vref_stage2_0.vr.t0 OTA_vref_0.OTA_vref_stage2_0.vr.t1 vcc.t6 sky130_fd_pr__pfet_01v8_lvt ad=0 pd=0 as=0 ps=0 w=0.5 l=2
**devattr s=5800,316 d=2900,158
X90 vcc.t9 OTA_vref_0.OTA_vref_stage2_0.vr.t24 a_3038_n2063# vcc.t8 sky130_fd_pr__pfet_01v8_lvt ad=0 pd=0 as=0.29 ps=2.58 w=1 l=2
**devattr s=11600,516 d=11600,516
X91 a_n27_n4200.t17 a_n27_n4200.t16 vss.t31 vss.t30 sky130_fd_pr__nfet_01v8_lvt ad=0 pd=0 as=0 ps=0 w=4 l=1
**devattr s=23200,858 d=23200,858
X92 OTA_vref_0.OTA_vref_stage2_0.vref0.t7 OTA_vref_0.OTA_vref_stage1_0.sky130_fd_pr__rf_pnp_05v5_W3p40L3p40_0.Emitter.t28 a_n27_n4200.t34 vss.t60 sky130_fd_pr__nfet_01v8_lvt ad=0 pd=0 as=0 ps=0 w=4 l=1
**devattr s=23200,858 d=23200,858
X93 OTA_vref_0.OTA_vref_stage2_0.vref0.t6 OTA_vref_0.OTA_vref_stage1_0.sky130_fd_pr__rf_pnp_05v5_W3p40L3p40_0.Emitter.t29 a_n27_n4200.t35 vss.t59 sky130_fd_pr__nfet_01v8_lvt ad=0 pd=0 as=0 ps=0 w=4 l=1
**devattr s=23200,858 d=23200,858
X94 OTA_vref_0.OTA_vref_stage1_0.sky130_fd_pr__rf_pnp_05v5_W3p40L3p40_0.Emitter.t2 OTA_vref_0.OTA_vref_stage2_0.vr.t25 vcc.t5 vcc.t4 sky130_fd_pr__pfet_01v8_lvt ad=0 pd=0 as=0 ps=0 w=1 l=1
**devattr s=5800,258 d=11600,516
X95 a_521_2177.t1 a_521_2177.t0 vss.t11 vss.t10 sky130_fd_pr__nfet_01v8_lvt ad=0 pd=0 as=0 ps=0 w=1.5 l=9.4
**devattr s=8700,358 d=17400,716
X96 vo.t2 OTA_stage2_0.vd1.t8 a_959_2177.t0 vcc.t18 sky130_fd_pr__pfet_01v8_lvt ad=0 pd=0 as=0 ps=0 w=15 l=1.9
**devattr s=87000,3058 d=174000,6116
X97 a_n27_n4200.t1 a_n27_n4200.t0 vss.t29 vss.t28 sky130_fd_pr__nfet_01v8_lvt ad=0 pd=0 as=0 ps=0 w=4 l=1
**devattr s=23200,858 d=23200,858
X98 OTA_vref_0.OTA_vref_stage2_0.vref0.t32 a_3038_n2063# a_2980_n1975# vss.t74 sky130_fd_pr__nfet_01v8_lvt ad=0 pd=0 as=0.145 ps=1.29 w=1 l=1
**devattr s=5800,258 d=11600,516
X99 vcc.t3 OTA_vref_0.OTA_vref_stage2_0.vr.t26 a_1748_n2063# vcc.t2 sky130_fd_pr__pfet_01v8_lvt ad=0 pd=0 as=0.29 ps=2.58 w=1 l=2
**devattr s=11600,516 d=11600,516
X100 OTA_vref_0.OTA_vref_stage2_0.vr.t7 OTA_vref_0.OTA_vref_stage1_0.sky130_fd_pr__rf_pnp_05v5_W3p40L3p40_0.Emitter.t30 OTA_vref_0.OTA_vref_stage2_0.vref0.t2 vss.t54 sky130_fd_pr__nfet_01v8_lvt ad=0 pd=0 as=0 ps=0 w=4 l=1
**devattr s=23200,858 d=23200,858
X101 a_n8089_3635# vin_n.t1 OTA_stage2_0.vd1.t0 vss.t4 sky130_fd_pr__nfet_01v8_lvt ad=0.966667 pd=7.053333 as=0 ps=0 w=6 l=12
**devattr s=69600,2516 d=34800,1258
X102 OTA_vref_0.OTA_vref_stage2_0.vr.t6 OTA_vref_0.OTA_vref_stage1_0.sky130_fd_pr__rf_pnp_05v5_W3p40L3p40_0.Emitter.t31 OTA_vref_0.OTA_vref_stage2_0.vref0.t29 vss.t56 sky130_fd_pr__nfet_01v8_lvt ad=0 pd=0 as=0 ps=0 w=4 l=1
**devattr s=23200,858 d=23200,858
X103 a_n8089_3635# OTA_vref_0.vb vss.t14 vss.t13 sky130_fd_pr__nfet_01v8 ad=0.483333 pd=3.526667 as=0 ps=0 w=3 l=5
**devattr s=34800,1316 d=34800,1316
X104 a_n27_n4200.t11 a_n27_n4200.t10 vss.t27 vss.t26 sky130_fd_pr__nfet_01v8_lvt ad=0 pd=0 as=0 ps=0 w=4 l=1
**devattr s=46400,1716 d=23200,858
X105 OTA_vref_0.OTA_vref_stage2_0.vr.t5 OTA_vref_0.OTA_vref_stage1_0.sky130_fd_pr__rf_pnp_05v5_W3p40L3p40_0.Emitter.t32 OTA_vref_0.OTA_vref_stage2_0.vref0.t30 vss.t50 sky130_fd_pr__nfet_01v8_lvt ad=0 pd=0 as=0 ps=0 w=4 l=1
**devattr s=23200,858 d=23200,858
X106 OTA_vref_0.OTA_vref_stage2_0.vref0.t5 OTA_vref_0.OTA_vref_stage1_0.sky130_fd_pr__rf_pnp_05v5_W3p40L3p40_0.Emitter.t33 a_n27_n4200.t36 vss.t58 sky130_fd_pr__nfet_01v8_lvt ad=0 pd=0 as=0 ps=0 w=4 l=1
**devattr s=23200,858 d=23200,858
X107 OTA_vref_0.OTA_vref_stage2_0.vref0.t31 OTA_vref_0.OTA_vref_stage1_0.sky130_fd_pr__rf_pnp_05v5_W3p40L3p40_0.Emitter.t34 OTA_vref_0.OTA_vref_stage2_0.vr.t4 vss.t48 sky130_fd_pr__nfet_01v8_lvt ad=0 pd=0 as=0 ps=0 w=4 l=1
**devattr s=23200,858 d=23200,858
X108 OTA_vref_0.OTA_vref_stage2_0.vr.t3 OTA_vref_0.OTA_vref_stage2_0.vr.t2 vcc.t1 vcc.t0 sky130_fd_pr__pfet_01v8_lvt ad=0 pd=0 as=0 ps=0 w=0.5 l=2
**devattr s=2900,158 d=5800,316
R0 OTA_vref_0.OTA_vref_stage1_0.sky130_fd_pr__rf_pnp_05v5_W3p40L3p40_0.Emitter.n86 OTA_vref_0.OTA_vref_stage1_0.sky130_fd_pr__rf_pnp_05v5_W3p40L3p40_0.Emitter.n85 1594.54
R1 OTA_vref_0.OTA_vref_stage1_0.sky130_fd_pr__rf_pnp_05v5_W3p40L3p40_0.Emitter.n88 OTA_vref_0.OTA_vref_stage1_0.sky130_fd_pr__rf_pnp_05v5_W3p40L3p40_0.Emitter.t2 235.982
R2 OTA_vref_0.OTA_vref_stage1_0.sky130_fd_pr__rf_pnp_05v5_W3p40L3p40_0.Emitter.n88 OTA_vref_0.OTA_vref_stage1_0.sky130_fd_pr__rf_pnp_05v5_W3p40L3p40_0.Emitter.t1 235.978
R3 OTA_vref_0.OTA_vref_stage1_0.sky130_fd_pr__rf_pnp_05v5_W3p40L3p40_0.Emitter.t4 OTA_vref_0.OTA_vref_stage1_0.sky130_fd_pr__rf_pnp_05v5_W3p40L3p40_0.Emitter.n64 190.305
R4 OTA_vref_0.OTA_vref_stage1_0.sky130_fd_pr__rf_pnp_05v5_W3p40L3p40_0.Emitter.n65 OTA_vref_0.OTA_vref_stage1_0.sky130_fd_pr__rf_pnp_05v5_W3p40L3p40_0.Emitter.t4 190.305
R5 OTA_vref_0.OTA_vref_stage1_0.sky130_fd_pr__rf_pnp_05v5_W3p40L3p40_0.Emitter.n52 OTA_vref_0.OTA_vref_stage1_0.sky130_fd_pr__rf_pnp_05v5_W3p40L3p40_0.Emitter.t6 190.305
R6 OTA_vref_0.OTA_vref_stage1_0.sky130_fd_pr__rf_pnp_05v5_W3p40L3p40_0.Emitter.n60 OTA_vref_0.OTA_vref_stage1_0.sky130_fd_pr__rf_pnp_05v5_W3p40L3p40_0.Emitter.t6 190.305
R7 OTA_vref_0.OTA_vref_stage1_0.sky130_fd_pr__rf_pnp_05v5_W3p40L3p40_0.Emitter.n55 OTA_vref_0.OTA_vref_stage1_0.sky130_fd_pr__rf_pnp_05v5_W3p40L3p40_0.Emitter.t22 190.305
R8 OTA_vref_0.OTA_vref_stage1_0.sky130_fd_pr__rf_pnp_05v5_W3p40L3p40_0.Emitter.t22 OTA_vref_0.OTA_vref_stage1_0.sky130_fd_pr__rf_pnp_05v5_W3p40L3p40_0.Emitter.n53 190.305
R9 OTA_vref_0.OTA_vref_stage1_0.sky130_fd_pr__rf_pnp_05v5_W3p40L3p40_0.Emitter.t10 OTA_vref_0.OTA_vref_stage1_0.sky130_fd_pr__rf_pnp_05v5_W3p40L3p40_0.Emitter.n45 190.305
R10 OTA_vref_0.OTA_vref_stage1_0.sky130_fd_pr__rf_pnp_05v5_W3p40L3p40_0.Emitter.n46 OTA_vref_0.OTA_vref_stage1_0.sky130_fd_pr__rf_pnp_05v5_W3p40L3p40_0.Emitter.t10 190.305
R11 OTA_vref_0.OTA_vref_stage1_0.sky130_fd_pr__rf_pnp_05v5_W3p40L3p40_0.Emitter.t34 OTA_vref_0.OTA_vref_stage1_0.sky130_fd_pr__rf_pnp_05v5_W3p40L3p40_0.Emitter.n26 190.305
R12 OTA_vref_0.OTA_vref_stage1_0.sky130_fd_pr__rf_pnp_05v5_W3p40L3p40_0.Emitter.n27 OTA_vref_0.OTA_vref_stage1_0.sky130_fd_pr__rf_pnp_05v5_W3p40L3p40_0.Emitter.t34 190.305
R13 OTA_vref_0.OTA_vref_stage1_0.sky130_fd_pr__rf_pnp_05v5_W3p40L3p40_0.Emitter.t13 OTA_vref_0.OTA_vref_stage1_0.sky130_fd_pr__rf_pnp_05v5_W3p40L3p40_0.Emitter.n7 190.305
R14 OTA_vref_0.OTA_vref_stage1_0.sky130_fd_pr__rf_pnp_05v5_W3p40L3p40_0.Emitter.n8 OTA_vref_0.OTA_vref_stage1_0.sky130_fd_pr__rf_pnp_05v5_W3p40L3p40_0.Emitter.t13 190.305
R15 OTA_vref_0.OTA_vref_stage1_0.sky130_fd_pr__rf_pnp_05v5_W3p40L3p40_0.Emitter.n71 OTA_vref_0.OTA_vref_stage1_0.sky130_fd_pr__rf_pnp_05v5_W3p40L3p40_0.Emitter.t20 95.392
R16 OTA_vref_0.OTA_vref_stage1_0.sky130_fd_pr__rf_pnp_05v5_W3p40L3p40_0.Emitter.n4 OTA_vref_0.OTA_vref_stage1_0.sky130_fd_pr__rf_pnp_05v5_W3p40L3p40_0.Emitter.t16 95.3648
R17 OTA_vref_0.OTA_vref_stage1_0.sky130_fd_pr__rf_pnp_05v5_W3p40L3p40_0.Emitter.n54 OTA_vref_0.OTA_vref_stage1_0.sky130_fd_pr__rf_pnp_05v5_W3p40L3p40_0.Emitter.t21 95.1871
R18 OTA_vref_0.OTA_vref_stage1_0.sky130_fd_pr__rf_pnp_05v5_W3p40L3p40_0.Emitter.n25 OTA_vref_0.OTA_vref_stage1_0.sky130_fd_pr__rf_pnp_05v5_W3p40L3p40_0.Emitter.t14 95.1789
R19 OTA_vref_0.OTA_vref_stage1_0.sky130_fd_pr__rf_pnp_05v5_W3p40L3p40_0.Emitter.n6 OTA_vref_0.OTA_vref_stage1_0.sky130_fd_pr__rf_pnp_05v5_W3p40L3p40_0.Emitter.t17 95.1789
R20 OTA_vref_0.OTA_vref_stage1_0.sky130_fd_pr__rf_pnp_05v5_W3p40L3p40_0.Emitter.n44 OTA_vref_0.OTA_vref_stage1_0.sky130_fd_pr__rf_pnp_05v5_W3p40L3p40_0.Emitter.t18 95.1754
R21 OTA_vref_0.OTA_vref_stage1_0.sky130_fd_pr__rf_pnp_05v5_W3p40L3p40_0.Emitter.n63 OTA_vref_0.OTA_vref_stage1_0.sky130_fd_pr__rf_pnp_05v5_W3p40L3p40_0.Emitter.t23 95.1707
R22 OTA_vref_0.OTA_vref_stage1_0.sky130_fd_pr__rf_pnp_05v5_W3p40L3p40_0.Emitter.n71 OTA_vref_0.OTA_vref_stage1_0.sky130_fd_pr__rf_pnp_05v5_W3p40L3p40_0.Emitter.t8 95.1542
R23 OTA_vref_0.OTA_vref_stage1_0.sky130_fd_pr__rf_pnp_05v5_W3p40L3p40_0.Emitter.n4 OTA_vref_0.OTA_vref_stage1_0.sky130_fd_pr__rf_pnp_05v5_W3p40L3p40_0.Emitter.t24 95.1542
R24 OTA_vref_0.OTA_vref_stage1_0.sky130_fd_pr__rf_pnp_05v5_W3p40L3p40_0.Emitter.n21 OTA_vref_0.OTA_vref_stage1_0.sky130_fd_pr__rf_pnp_05v5_W3p40L3p40_0.Emitter.t3 94.8314
R25 OTA_vref_0.OTA_vref_stage1_0.sky130_fd_pr__rf_pnp_05v5_W3p40L3p40_0.Emitter.n68 OTA_vref_0.OTA_vref_stage1_0.sky130_fd_pr__rf_pnp_05v5_W3p40L3p40_0.Emitter.t28 94.8314
R26 OTA_vref_0.OTA_vref_stage1_0.sky130_fd_pr__rf_pnp_05v5_W3p40L3p40_0.Emitter.n66 OTA_vref_0.OTA_vref_stage1_0.sky130_fd_pr__rf_pnp_05v5_W3p40L3p40_0.Emitter.t7 94.8314
R27 OTA_vref_0.OTA_vref_stage1_0.sky130_fd_pr__rf_pnp_05v5_W3p40L3p40_0.Emitter.n57 OTA_vref_0.OTA_vref_stage1_0.sky130_fd_pr__rf_pnp_05v5_W3p40L3p40_0.Emitter.t11 94.8314
R28 OTA_vref_0.OTA_vref_stage1_0.sky130_fd_pr__rf_pnp_05v5_W3p40L3p40_0.Emitter.n49 OTA_vref_0.OTA_vref_stage1_0.sky130_fd_pr__rf_pnp_05v5_W3p40L3p40_0.Emitter.t33 94.8314
R29 OTA_vref_0.OTA_vref_stage1_0.sky130_fd_pr__rf_pnp_05v5_W3p40L3p40_0.Emitter.n47 OTA_vref_0.OTA_vref_stage1_0.sky130_fd_pr__rf_pnp_05v5_W3p40L3p40_0.Emitter.t30 94.8314
R30 OTA_vref_0.OTA_vref_stage1_0.sky130_fd_pr__rf_pnp_05v5_W3p40L3p40_0.Emitter.n38 OTA_vref_0.OTA_vref_stage1_0.sky130_fd_pr__rf_pnp_05v5_W3p40L3p40_0.Emitter.t9 94.8314
R31 OTA_vref_0.OTA_vref_stage1_0.sky130_fd_pr__rf_pnp_05v5_W3p40L3p40_0.Emitter.n34 OTA_vref_0.OTA_vref_stage1_0.sky130_fd_pr__rf_pnp_05v5_W3p40L3p40_0.Emitter.t25 94.8314
R32 OTA_vref_0.OTA_vref_stage1_0.sky130_fd_pr__rf_pnp_05v5_W3p40L3p40_0.Emitter.n36 OTA_vref_0.OTA_vref_stage1_0.sky130_fd_pr__rf_pnp_05v5_W3p40L3p40_0.Emitter.t15 94.8314
R33 OTA_vref_0.OTA_vref_stage1_0.sky130_fd_pr__rf_pnp_05v5_W3p40L3p40_0.Emitter.n40 OTA_vref_0.OTA_vref_stage1_0.sky130_fd_pr__rf_pnp_05v5_W3p40L3p40_0.Emitter.t29 94.8314
R34 OTA_vref_0.OTA_vref_stage1_0.sky130_fd_pr__rf_pnp_05v5_W3p40L3p40_0.Emitter.n30 OTA_vref_0.OTA_vref_stage1_0.sky130_fd_pr__rf_pnp_05v5_W3p40L3p40_0.Emitter.t27 94.8314
R35 OTA_vref_0.OTA_vref_stage1_0.sky130_fd_pr__rf_pnp_05v5_W3p40L3p40_0.Emitter.n28 OTA_vref_0.OTA_vref_stage1_0.sky130_fd_pr__rf_pnp_05v5_W3p40L3p40_0.Emitter.t5 94.8314
R36 OTA_vref_0.OTA_vref_stage1_0.sky130_fd_pr__rf_pnp_05v5_W3p40L3p40_0.Emitter.n19 OTA_vref_0.OTA_vref_stage1_0.sky130_fd_pr__rf_pnp_05v5_W3p40L3p40_0.Emitter.t31 94.8314
R37 OTA_vref_0.OTA_vref_stage1_0.sky130_fd_pr__rf_pnp_05v5_W3p40L3p40_0.Emitter.n15 OTA_vref_0.OTA_vref_stage1_0.sky130_fd_pr__rf_pnp_05v5_W3p40L3p40_0.Emitter.t19 94.8314
R38 OTA_vref_0.OTA_vref_stage1_0.sky130_fd_pr__rf_pnp_05v5_W3p40L3p40_0.Emitter.n17 OTA_vref_0.OTA_vref_stage1_0.sky130_fd_pr__rf_pnp_05v5_W3p40L3p40_0.Emitter.t12 94.8314
R39 OTA_vref_0.OTA_vref_stage1_0.sky130_fd_pr__rf_pnp_05v5_W3p40L3p40_0.Emitter.n11 OTA_vref_0.OTA_vref_stage1_0.sky130_fd_pr__rf_pnp_05v5_W3p40L3p40_0.Emitter.t26 94.8314
R40 OTA_vref_0.OTA_vref_stage1_0.sky130_fd_pr__rf_pnp_05v5_W3p40L3p40_0.Emitter.n9 OTA_vref_0.OTA_vref_stage1_0.sky130_fd_pr__rf_pnp_05v5_W3p40L3p40_0.Emitter.t32 94.8314
R41 OTA_vref_0.OTA_vref_stage1_0.sky130_fd_pr__rf_pnp_05v5_W3p40L3p40_0.Emitter.n87 OTA_vref_0.OTA_vref_stage1_0.sky130_fd_pr__rf_pnp_05v5_W3p40L3p40_0.Emitter.n86 84.0884
R42 OTA_vref_0.OTA_vref_stage1_0.sky130_fd_pr__rf_pnp_05v5_W3p40L3p40_0.Emitter.n84 OTA_vref_0.OTA_vref_stage1_0.sky130_fd_pr__rf_pnp_05v5_W3p40L3p40_0.Emitter.n1 83.5719
R43 OTA_vref_0.OTA_vref_stage1_0.sky130_fd_pr__rf_pnp_05v5_W3p40L3p40_0.Emitter.n83 OTA_vref_0.OTA_vref_stage1_0.sky130_fd_pr__rf_pnp_05v5_W3p40L3p40_0.Emitter.n0 83.5719
R44 OTA_vref_0.OTA_vref_stage1_0.sky130_fd_pr__rf_pnp_05v5_W3p40L3p40_0.Emitter.n82 OTA_vref_0.OTA_vref_stage1_0.sky130_fd_pr__rf_pnp_05v5_W3p40L3p40_0.Emitter.n81 83.5719
R45 OTA_vref_0.OTA_vref_stage1_0.sky130_fd_pr__rf_pnp_05v5_W3p40L3p40_0.Emitter.n74 OTA_vref_0.OTA_vref_stage1_0.sky130_fd_pr__rf_pnp_05v5_W3p40L3p40_0.Emitter.n3 83.5719
R46 OTA_vref_0.OTA_vref_stage1_0.sky130_fd_pr__rf_pnp_05v5_W3p40L3p40_0.Emitter.n75 OTA_vref_0.OTA_vref_stage1_0.sky130_fd_pr__rf_pnp_05v5_W3p40L3p40_0.Emitter.n74 73.19
R47 OTA_vref_0.OTA_vref_stage1_0.sky130_fd_pr__rf_pnp_05v5_W3p40L3p40_0.Emitter.n83 OTA_vref_0.OTA_vref_stage1_0.sky130_fd_pr__rf_pnp_05v5_W3p40L3p40_0.Emitter.n82 26.074
R48 OTA_vref_0.OTA_vref_stage1_0.sky130_fd_pr__rf_pnp_05v5_W3p40L3p40_0.Emitter.n84 OTA_vref_0.OTA_vref_stage1_0.sky130_fd_pr__rf_pnp_05v5_W3p40L3p40_0.Emitter.n83 26.074
R49 OTA_vref_0.OTA_vref_stage1_0.sky130_fd_pr__rf_pnp_05v5_W3p40L3p40_0.Emitter.n86 OTA_vref_0.OTA_vref_stage1_0.sky130_fd_pr__rf_pnp_05v5_W3p40L3p40_0.Emitter.n84 26.074
R50 OTA_vref_0.OTA_vref_stage1_0.sky130_fd_pr__rf_pnp_05v5_W3p40L3p40_0.Emitter.n74 OTA_vref_0.OTA_vref_stage1_0.sky130_fd_pr__rf_pnp_05v5_W3p40L3p40_0.Emitter.t0 25.7843
R51 OTA_vref_0.OTA_vref_stage1_0.sky130_fd_pr__rf_pnp_05v5_W3p40L3p40_0.Emitter.n13 OTA_vref_0.OTA_vref_stage1_0.sky130_fd_pr__rf_pnp_05v5_W3p40L3p40_0.Emitter.n4 10.2822
R52 OTA_vref_0.OTA_vref_stage1_0.sky130_fd_pr__rf_pnp_05v5_W3p40L3p40_0.Emitter.n72 OTA_vref_0.OTA_vref_stage1_0.sky130_fd_pr__rf_pnp_05v5_W3p40L3p40_0.Emitter.n71 9.66384
R53 OTA_vref_0.OTA_vref_stage1_0.sky130_fd_pr__rf_pnp_05v5_W3p40L3p40_0.Emitter.n61 OTA_vref_0.OTA_vref_stage1_0.sky130_fd_pr__rf_pnp_05v5_W3p40L3p40_0.Emitter.n60 7.22993
R54 OTA_vref_0.OTA_vref_stage1_0.sky130_fd_pr__rf_pnp_05v5_W3p40L3p40_0.Emitter.n42 OTA_vref_0.OTA_vref_stage1_0.sky130_fd_pr__rf_pnp_05v5_W3p40L3p40_0.Emitter.n41 7.22993
R55 OTA_vref_0.OTA_vref_stage1_0.sky130_fd_pr__rf_pnp_05v5_W3p40L3p40_0.Emitter.n23 OTA_vref_0.OTA_vref_stage1_0.sky130_fd_pr__rf_pnp_05v5_W3p40L3p40_0.Emitter.n22 7.22819
R56 OTA_vref_0.OTA_vref_stage1_0.sky130_fd_pr__rf_pnp_05v5_W3p40L3p40_0.Emitter.n70 OTA_vref_0.OTA_vref_stage1_0.sky130_fd_pr__rf_pnp_05v5_W3p40L3p40_0.Emitter.n69 6.83022
R57 OTA_vref_0.OTA_vref_stage1_0.sky130_fd_pr__rf_pnp_05v5_W3p40L3p40_0.Emitter.n51 OTA_vref_0.OTA_vref_stage1_0.sky130_fd_pr__rf_pnp_05v5_W3p40L3p40_0.Emitter.n50 6.81633
R58 OTA_vref_0.OTA_vref_stage1_0.sky130_fd_pr__rf_pnp_05v5_W3p40L3p40_0.Emitter.n32 OTA_vref_0.OTA_vref_stage1_0.sky130_fd_pr__rf_pnp_05v5_W3p40L3p40_0.Emitter.n31 6.81633
R59 OTA_vref_0.OTA_vref_stage1_0.sky130_fd_pr__rf_pnp_05v5_W3p40L3p40_0.Emitter.n13 OTA_vref_0.OTA_vref_stage1_0.sky130_fd_pr__rf_pnp_05v5_W3p40L3p40_0.Emitter.n12 6.81633