* NGSPICE file created from tt_um_DalinEM_test_flat.ext - technology: sky130A

.subckt tt_um_DalinEM_test_flat ua[0] ua[1] ua[2] ua[3] ua[4] ua[5] VDPWR VGND
X0 3_OTA_0.3rd_3_OTA_0.vd3.t9 3_OTA_0.3rd_3_OTA_0.vd3.t8 VGND.t80 VGND.t73 sky130_fd_pr__nfet_01v8_lvt ad=0 pd=0 as=0 ps=0 w=1.5 l=9.4
**devattr s=8700,358 d=8700,358
X1 a_18163_10306.t4 ua[2].t0 a_18046_7223# VGND.t13 sky130_fd_pr__nfet_01v8_lvt ad=0 pd=0 as=0.966667 ps=7.053333 w=6 l=12
**devattr s=34800,1258 d=69600,2516
X2 VGND.t86 a_12378_15906.t38 a_12378_15906.t39 VGND.t3 sky130_fd_pr__nfet_01v8_lvt ad=0 pd=0 as=0 ps=0 w=4 l=1
**devattr s=23200,858 d=46400,1716
X3 3_OTA_0.OTA_vref_0.OTA_vref_stage2_0.vref0.t32 3_OTA_0.OTA_vref_0.OTA_vref_stage1_0.sky130_fd_pr__rf_pnp_05v5_W3p40L3p40_0.Emitter.t3 3_OTA_0.OTA_vref_0.OTA_vref_stage2_0.vr.t5 VGND.t3 sky130_fd_pr__nfet_01v8_lvt ad=0 pd=0 as=0 ps=0 w=4 l=1
**devattr s=23200,858 d=23200,858
X4 3_OTA_0.OTA_vref_0.vb 3_OTA_0.OTA_vref_0.OTA_vref_stage2_0.vr.t20 VDPWR.t63 VDPWR.t51 sky130_fd_pr__pfet_01v8_lvt ad=0.29 pd=2.58 as=0 ps=0 w=1 l=2
**devattr s=11600,516 d=11600,516
X5 a_24889_22946.t1 3_OTA_0.OTA_stage1_0.vd1 sky130_fd_pr__cap_mim_m3_1 l=17 w=17
X6 a_12378_15906.t43 3_OTA_0.OTA_vref_0.OTA_vref_stage1_0.sky130_fd_pr__rf_pnp_05v5_W3p40L3p40_0.Emitter.t4 3_OTA_0.OTA_vref_0.OTA_vref_stage2_0.vref0.t16 VGND.t8 sky130_fd_pr__nfet_01v8_lvt ad=0 pd=0 as=0 ps=0 w=4 l=1
**devattr s=23200,858 d=23200,858
X7 a_3013_4521.t44 a_3013_4521.t43 VGND.t53 VGND.t11 sky130_fd_pr__nfet_01v8_lvt ad=0 pd=0 as=0 ps=0 w=4 l=1
**devattr s=23200,858 d=23200,858
X8 BGR_BJT_vref_0.BGR_BJT_stage2_0.vref0.t29 BGR_BJT_vref_0.BGR_BJT_stage1_0.sky130_fd_pr__rf_pnp_05v5_W3p40L3p40_0.Emitter.t3 a_3013_4521.t10 VGND.t5 sky130_fd_pr__nfet_01v8_lvt ad=0 pd=0 as=0 ps=0 w=4 l=1
**devattr s=23200,858 d=23200,858
X9 3_OTA_0.OTA_vref_0.OTA_vref_stage2_0.vref0.t31 3_OTA_0.OTA_vref_0.OTA_vref_stage1_0.sky130_fd_pr__rf_pnp_05v5_W3p40L3p40_0.Emitter.t5 3_OTA_0.OTA_vref_0.OTA_vref_stage2_0.vr.t18 VGND.t3 sky130_fd_pr__nfet_01v8_lvt ad=0 pd=0 as=0 ps=0 w=4 l=1
**devattr s=23200,858 d=23200,858
X10 a_3013_4521.t42 a_3013_4521.t41 VGND.t44 VGND.t6 sky130_fd_pr__nfet_01v8_lvt ad=0 pd=0 as=0 ps=0 w=4 l=1
**devattr s=23200,858 d=23200,858
X11 a_12564_25551.t11 3_OTA_0.OTA_vref_0.vb1.t6 VDPWR.t45 VDPWR.t44 sky130_fd_pr__pfet_01v8 ad=0 pd=0 as=0 ps=0 w=7 l=1.8
**devattr s=40600,1458 d=81200,2916
X12 a_12564_25551.t5 3_OTA_0.OTA_stage1_0.vd1.t0 3_OTA_0.3rd_3_OTA_0.vd4.t3 VDPWR.t37 sky130_fd_pr__pfet_01v8_lvt ad=0 pd=0 as=0 ps=0 w=15 l=1.9
**devattr s=174000,6116 d=87000,3058
X13 a_12378_15906.t47 3_OTA_0.OTA_vref_0.OTA_vref_stage1_0.sky130_fd_pr__rf_pnp_05v5_W3p40L3p40_0.Emitter.t6 3_OTA_0.OTA_vref_0.OTA_vref_stage2_0.vref0.t15 VGND.t8 sky130_fd_pr__nfet_01v8_lvt ad=0 pd=0 as=0 ps=0 w=4 l=1
**devattr s=23200,858 d=23200,858
X14 a_6719_5623# a_6631_5681# a_6631_5681# VGND.t39 sky130_fd_pr__nfet_01v8_lvt ad=0.145 pd=1.29 as=0.145 ps=1.29 w=1 l=1
**devattr s=5800,258 d=5800,258
X15 BGR_BJT_vref_0.BGR_BJT_stage2_0.vref0.t28 BGR_BJT_vref_0.BGR_BJT_stage1_0.sky130_fd_pr__rf_pnp_05v5_W3p40L3p40_0.Emitter.t4 a_3013_4521.t12 VGND.t7 sky130_fd_pr__nfet_01v8_lvt ad=0 pd=0 as=0 ps=0 w=4 l=1
**devattr s=23200,858 d=23200,858
X16 a_15996_17227# 3_OTA_0.OTA_vref_0.OTA_vref_stage2_0.vr.t21 VDPWR.t62 VDPWR.t61 sky130_fd_pr__pfet_01v8_lvt ad=0.29 pd=2.58 as=0 ps=0 w=1 l=2
**devattr s=11600,516 d=11600,516
X17 VGND.t36 a_3013_4521.t39 a_3013_4521.t40 VGND.t5 sky130_fd_pr__nfet_01v8_lvt ad=0 pd=0 as=0 ps=0 w=4 l=1
**devattr s=23200,858 d=23200,858
X18 BGR_BJT_vref_0.BGR_BJT_stage2_0.vref0.t0 a_6631_6971# a_6719_6913# VGND.t26 sky130_fd_pr__nfet_01v8_lvt ad=0 pd=0 as=0.145 ps=1.29 w=1 l=1
**devattr s=5800,258 d=11600,516
X19 3_OTA_0.OTA_stage1_0.vd1 3_OTA_0.OTA_stage1_0.vd2.t0 VDPWR.t24 VDPWR.t22 sky130_fd_pr__pfet_01v8_lvt ad=0.522 pd=4.18 as=0 ps=0 w=1.8 l=18
**devattr s=10440,418 d=20880,836
X20 ua[1].t1 a_18163_10306.t0 VDPWR.t36 VDPWR.t34 sky130_fd_pr__pfet_01v8_lvt ad=0 pd=0 as=0 ps=0 w=1.8 l=18
**devattr s=10440,418 d=20880,836
X21 BGR_BJT_vref_0.BGR_BJT_stage2_0.vref0.t27 BGR_BJT_vref_0.BGR_BJT_stage1_0.sky130_fd_pr__rf_pnp_05v5_W3p40L3p40_0.Emitter.t5 a_3013_4521.t11 VGND.t1 sky130_fd_pr__nfet_01v8_lvt ad=0 pd=0 as=0 ps=0 w=4 l=1
**devattr s=23200,858 d=23200,858
X22 a_15996_21097# a_15996_21097# 3_OTA_0.OTA_vref_0.vb VGND.t16 sky130_fd_pr__nfet_01v8_lvt ad=0.145 pd=1.29 as=0.174 ps=1.548 w=1 l=1
**devattr s=5800,258 d=5800,258
X23 a_16084_17427# a_15996_17227# a_15996_17227# VGND.t16 sky130_fd_pr__nfet_01v8_lvt ad=0.145 pd=1.29 as=0.145 ps=1.29 w=1 l=1
**devattr s=5800,258 d=5800,258
X24 a_12378_15906.t37 a_12378_15906.t36 VGND.t46 VGND.t3 sky130_fd_pr__nfet_01v8_lvt ad=0 pd=0 as=0 ps=0 w=4 l=1
**devattr s=23200,858 d=23200,858
X25 BGR_BJT_vref_0.BGR_BJT_stage2_0.vref0.t12 BGR_BJT_vref_0.BGR_BJT_stage1_0.sky130_fd_pr__rf_pnp_05v5_W3p40L3p40_0.Emitter.t6 BGR_BJT_vref_0.BGR_BJT_stage2_0.vr.t15 VGND.t5 sky130_fd_pr__nfet_01v8_lvt ad=0 pd=0 as=0 ps=0 w=4 l=1
**devattr s=23200,858 d=23200,858
X26 a_24889_22946.t0 ua[0].t1 VGND.t40 sky130_fd_pr__res_xhigh_po_0p35 l=1.2
X27 3_OTA_0.OTA_vref_0.OTA_vref_stage2_0.vr.t6 3_OTA_0.OTA_vref_0.OTA_vref_stage1_0.sky130_fd_pr__rf_pnp_05v5_W3p40L3p40_0.Emitter.t7 3_OTA_0.OTA_vref_0.OTA_vref_stage2_0.vref0.t30 VGND.t3 sky130_fd_pr__nfet_01v8_lvt ad=0 pd=0 as=0 ps=0 w=4 l=1
**devattr s=23200,858 d=23200,858
X28 BGR_BJT_vref_0.BGR_BJT_stage2_0.vref0.t26 BGR_BJT_vref_0.BGR_BJT_stage1_0.sky130_fd_pr__rf_pnp_05v5_W3p40L3p40_0.Emitter.t7 a_3013_4521.t6 VGND.t19 sky130_fd_pr__nfet_01v8_lvt ad=0 pd=0 as=0 ps=0 w=4 l=1
**devattr s=23200,858 d=23200,858
X29 BGR_BJT_vref_0.BGR_BJT_stage2_0.vref0.t25 BGR_BJT_vref_0.BGR_BJT_stage1_0.sky130_fd_pr__rf_pnp_05v5_W3p40L3p40_0.Emitter.t8 a_3013_4521.t7 VGND.t5 sky130_fd_pr__nfet_01v8_lvt ad=0 pd=0 as=0 ps=0 w=4 l=1
**devattr s=23200,858 d=23200,858
X30 3_OTA_0.OTA_vref_0.OTA_vref_stage2_0.vref0.t29 3_OTA_0.OTA_vref_0.OTA_vref_stage1_0.sky130_fd_pr__rf_pnp_05v5_W3p40L3p40_0.Emitter.t8 3_OTA_0.OTA_vref_0.OTA_vref_stage2_0.vr.t16 VGND.t8 sky130_fd_pr__nfet_01v8_lvt ad=0 pd=0 as=0 ps=0 w=4 l=1
**devattr s=23200,858 d=23200,858
X31 ua[1].t3 ua[3].t0 a_18046_7223# VGND.t48 sky130_fd_pr__nfet_01v8_lvt ad=0 pd=0 as=0.966667 ps=7.053333 w=6 l=12
**devattr s=34800,1258 d=69600,2516
X32 3_OTA_0.OTA_vref_0.OTA_vref_stage2_0.vr.t14 3_OTA_0.OTA_vref_0.OTA_vref_stage1_0.sky130_fd_pr__rf_pnp_05v5_W3p40L3p40_0.Emitter.t9 3_OTA_0.OTA_vref_0.OTA_vref_stage2_0.vref0.t28 VGND.t3 sky130_fd_pr__nfet_01v8_lvt ad=0 pd=0 as=0 ps=0 w=4 l=1
**devattr s=23200,858 d=23200,858
X33 3_OTA_0.OTA_vref_0.OTA_vref_stage1_0.sky130_fd_pr__rf_pnp_05v5_W3p40L3p40_0.Emitter.t1 3_OTA_0.OTA_vref_0.OTA_vref_stage2_0.vr.t22 VDPWR.t60 VDPWR.t59 sky130_fd_pr__pfet_01v8_lvt ad=0 pd=0 as=0 ps=0 w=1 l=1
**devattr s=5800,258 d=11600,516
X34 VGND.t79 3_OTA_0.3rd_3_OTA_0.vd3.t12 3_OTA_0.3rd_3_OTA_0.vd4.t7 VGND.t71 sky130_fd_pr__nfet_01v8_lvt ad=0 pd=0 as=0 ps=0 w=1.5 l=9.4
**devattr s=8700,358 d=8700,358
X35 VDPWR.t9 BGR_BJT_vref_0.BGR_BJT_stage2_0.vr.t20 a_6631_6971# VDPWR.t8 sky130_fd_pr__pfet_01v8_lvt ad=0 pd=0 as=0.29 ps=2.58 w=1 l=2
**devattr s=11600,516 d=11600,516
X36 3_OTA_0.3rd_3_OTA_0.vd3.t0 3_OTA_0.OTA_stage1_0.vd2.t4 a_12564_25551.t0 VDPWR.t38 sky130_fd_pr__pfet_01v8_lvt ad=0 pd=0 as=0 ps=0 w=15 l=1.9
**devattr s=87000,3058 d=174000,6116
X37 VDPWR.t1 a_21048_25880.t10 a_21048_25880.t11 VDPWR.t0 sky130_fd_pr__pfet_01v8_lvt ad=0 pd=0 as=0 ps=0 w=2.5 l=5
**devattr s=14500,558 d=14500,558
X38 3_OTA_0.OTA_vref_0.OTA_vref_stage2_0.vref0.t14 3_OTA_0.OTA_vref_0.OTA_vref_stage1_0.sky130_fd_pr__rf_pnp_05v5_W3p40L3p40_0.Emitter.t10 a_12378_15906.t0 VGND.t8 sky130_fd_pr__nfet_01v8_lvt ad=0 pd=0 as=0 ps=0 w=4 l=1
**devattr s=23200,858 d=23200,858
X39 a_6719_4333# a_6631_4391# a_6631_4391# VGND.t39 sky130_fd_pr__nfet_01v8_lvt ad=0.145 pd=1.29 as=0.145 ps=1.29 w=1 l=1
**devattr s=5800,258 d=5800,258
X40 a_18163_10306.t1 a_18163_10306.t0 VDPWR.t35 VDPWR.t34 sky130_fd_pr__pfet_01v8_lvt ad=0 pd=0 as=0 ps=0 w=1.8 l=18
**devattr s=10440,418 d=20880,836
X41 3_OTA_0.OTA_stage1_0.vd2.t3 3_OTA_0.OTA_stage1_0.vd2.t0 VDPWR.t23 VDPWR.t22 sky130_fd_pr__pfet_01v8_lvt ad=0 pd=0 as=0 ps=0 w=1.8 l=18
**devattr s=10440,418 d=20880,836
X42 a_12378_15906.t35 a_12378_15906.t34 VGND.t4 VGND.t3 sky130_fd_pr__nfet_01v8_lvt ad=0 pd=0 as=0 ps=0 w=4 l=1
**devattr s=46400,1716 d=23200,858
X43 VDPWR.t7 BGR_BJT_vref_0.BGR_BJT_stage2_0.vr.t21 a_6631_4391# VDPWR.t6 sky130_fd_pr__pfet_01v8_lvt ad=0 pd=0 as=0.29 ps=2.58 w=1 l=2
**devattr s=11600,516 d=11600,516
X44 BGR_BJT_vref_0.BGR_BJT_stage2_0.vref0.t5 BGR_BJT_vref_0.BGR_BJT_stage1_0.sky130_fd_pr__rf_pnp_05v5_W3p40L3p40_0.Emitter.t9 BGR_BJT_vref_0.BGR_BJT_stage2_0.vr.t14 VGND.t6 sky130_fd_pr__nfet_01v8_lvt ad=0 pd=0 as=0 ps=0 w=4 l=1
**devattr s=23200,858 d=23200,858
X45 a_6631_5681# a_6631_5681# a_6719_5623# VGND.t39 sky130_fd_pr__nfet_01v8_lvt ad=0.145 pd=1.29 as=0.145 ps=1.29 w=1 l=1
**devattr s=5800,258 d=5800,258
X46 a_3013_4521.t5 BGR_BJT_vref_0.BGR_BJT_stage1_0.sky130_fd_pr__rf_pnp_05v5_W3p40L3p40_0.Emitter.t10 BGR_BJT_vref_0.BGR_BJT_stage2_0.vref0.t24 VGND.t1 sky130_fd_pr__nfet_01v8_lvt ad=0 pd=0 as=0 ps=0 w=4 l=1
**devattr s=23200,858 d=23200,858
X47 BGR_BJT_vref_0.BGR_BJT_stage2_0.vref0.t10 BGR_BJT_vref_0.BGR_BJT_stage1_0.sky130_fd_pr__rf_pnp_05v5_W3p40L3p40_0.Emitter.t11 BGR_BJT_vref_0.BGR_BJT_stage2_0.vr.t13 VGND.t7 sky130_fd_pr__nfet_01v8_lvt ad=0 pd=0 as=0 ps=0 w=4 l=1
**devattr s=23200,858 d=23200,858
X48 VGND.t60 3_OTA_0.OTA_vref_0.vb a_22654_21988# VGND.t58 sky130_fd_pr__nfet_01v8 ad=0 pd=0 as=1.048143 ps=7.775429 w=5.5 l=1.5
**devattr s=63800,2316 d=31900,1158
X49 3_OTA_0.OTA_stage1_0.vd1 ua[3].t1 a_3537_27009# VGND.t30 sky130_fd_pr__nfet_01v8_lvt ad=1.74 pd=12.58 as=0.966667 ps=7.053333 w=6 l=12
**devattr s=34800,1258 d=69600,2516
X50 a_22654_21988# 3_OTA_0.3rd_3_OTA_0.vd3.t13 a_21048_25880.t3 VGND.t78 sky130_fd_pr__nfet_01v8_lvt ad=0.571714 pd=4.241143 as=0 ps=0 w=3 l=2
**devattr s=34800,1316 d=17400,658
X51 a_3013_4521.t2 BGR_BJT_vref_0.BGR_BJT_stage1_0.sky130_fd_pr__rf_pnp_05v5_W3p40L3p40_0.Emitter.t12 BGR_BJT_vref_0.BGR_BJT_stage2_0.vref0.t23 VGND.t10 sky130_fd_pr__nfet_01v8_lvt ad=0 pd=0 as=0 ps=0 w=4 l=1
**devattr s=23200,858 d=23200,858
X52 a_22654_21988# 3_OTA_0.3rd_3_OTA_0.vd4.t8 a_21048_27042.t3 VGND.t78 sky130_fd_pr__nfet_01v8_lvt ad=0.571714 pd=4.241143 as=0 ps=0 w=3 l=2
**devattr s=34800,1316 d=17400,658
X53 VGND.t28 a_12378_15906.t32 a_12378_15906.t33 VGND.t3 sky130_fd_pr__nfet_01v8_lvt ad=0 pd=0 as=0 ps=0 w=4 l=1
**devattr s=23200,858 d=23200,858
X54 a_15996_19807# a_15996_19807# a_16084_20007# VGND.t16 sky130_fd_pr__nfet_01v8_lvt ad=0.145 pd=1.29 as=0.145 ps=1.29 w=1 l=1
**devattr s=5800,258 d=5800,258
X55 a_3013_4521.t38 a_3013_4521.t37 VGND.t47 VGND.t7 sky130_fd_pr__nfet_01v8_lvt ad=0 pd=0 as=0 ps=0 w=4 l=1
**devattr s=23200,858 d=23200,858
X56 a_3013_4521.t36 a_3013_4521.t35 VGND.t22 VGND.t21 sky130_fd_pr__nfet_01v8_lvt ad=0 pd=0 as=0 ps=0 w=4 l=1
**devattr s=46400,1716 d=23200,858
X57 3_OTA_0.OTA_vref_0.OTA_vref_stage2_0.vref0.t27 3_OTA_0.OTA_vref_0.OTA_vref_stage1_0.sky130_fd_pr__rf_pnp_05v5_W3p40L3p40_0.Emitter.t11 3_OTA_0.OTA_vref_0.OTA_vref_stage2_0.vr.t9 VGND.t3 sky130_fd_pr__nfet_01v8_lvt ad=0 pd=0 as=0 ps=0 w=4 l=1
**devattr s=23200,858 d=23200,858
X58 a_6631_3101# a_6631_3101# ua[5].t3 VGND.t18 sky130_fd_pr__nfet_01v8_lvt ad=0.145 pd=1.29 as=0 ps=0 w=1 l=1
**devattr s=11600,516 d=5800,258
X59 a_3013_4521.t34 a_3013_4521.t33 VGND.t37 VGND.t5 sky130_fd_pr__nfet_01v8_lvt ad=0 pd=0 as=0 ps=0 w=4 l=1
**devattr s=23200,858 d=23200,858
X60 a_21048_27042.t11 a_21048_27042.t10 VDPWR.t41 VDPWR.t27 sky130_fd_pr__pfet_01v8_lvt ad=0 pd=0 as=0 ps=0 w=2.5 l=5
**devattr s=14500,558 d=29000,1116
X61 VDPWR.t30 a_21048_25880.t8 a_21048_25880.t9 VDPWR.t29 sky130_fd_pr__pfet_01v8_lvt ad=0 pd=0 as=0 ps=0 w=2.5 l=5
**devattr s=29000,1116 d=14500,558
X62 a_18046_7223# ua[4].t0 VGND.t55 VGND.t54 sky130_fd_pr__nfet_01v8 ad=0.483333 pd=3.526667 as=0 ps=0 w=3 l=5
**devattr s=34800,1316 d=34800,1316
X63 3_OTA_0.OTA_vref_0.OTA_vref_stage2_0.vr.t15 3_OTA_0.OTA_vref_0.OTA_vref_stage1_0.sky130_fd_pr__rf_pnp_05v5_W3p40L3p40_0.Emitter.t12 3_OTA_0.OTA_vref_0.OTA_vref_stage2_0.vref0.t26 VGND.t8 sky130_fd_pr__nfet_01v8_lvt ad=0 pd=0 as=0 ps=0 w=4 l=1
**devattr s=23200,858 d=46400,1716
X64 a_12378_15906.t31 a_12378_15906.t30 VGND.t23 VGND.t8 sky130_fd_pr__nfet_01v8_lvt ad=0 pd=0 as=0 ps=0 w=4 l=1
**devattr s=23200,858 d=23200,858
X65 a_16084_20007# a_15996_19807# 3_OTA_0.OTA_vref_0.vb1.t0 VGND.t16 sky130_fd_pr__nfet_01v8_lvt ad=0.145 pd=1.29 as=0 ps=0 w=1 l=1
**devattr s=5800,258 d=5800,258
X66 3_OTA_0.3rd_3_OTA_0.vd4.t9 3_OTA_0.OTA_stage1_0.vd1 sky130_fd_pr__cap_mim_m3_1 l=10 w=10
X67 ua[5].t2 a_6631_3101# a_6631_3101# VGND.t18 sky130_fd_pr__nfet_01v8_lvt ad=0 pd=0 as=0.145 ps=1.29 w=1 l=1
**devattr s=5800,258 d=5800,258
X68 BGR_BJT_vref_0.BGR_BJT_stage2_0.vref0.t8 BGR_BJT_vref_0.BGR_BJT_stage1_0.sky130_fd_pr__rf_pnp_05v5_W3p40L3p40_0.Emitter.t13 BGR_BJT_vref_0.BGR_BJT_stage2_0.vr.t12 VGND.t11 sky130_fd_pr__nfet_01v8_lvt ad=0 pd=0 as=0 ps=0 w=4 l=1
**devattr s=23200,858 d=23200,858
X69 3_OTA_0.3rd_3_OTA_0.vd4.t2 3_OTA_0.OTA_stage1_0.vd1.t1 a_12564_25551.t2 VDPWR.t38 sky130_fd_pr__pfet_01v8_lvt ad=0 pd=0 as=0 ps=0 w=15 l=1.9
**devattr s=87000,3058 d=174000,6116
X70 ua[0].t0 a_21048_27042.t12 VDPWR.t12 VDPWR.t11 sky130_fd_pr__pfet_01v8_lvt ad=0 pd=0 as=0 ps=0 w=2.6 l=0.35
**devattr s=30160,1156 d=30160,1156
X71 a_12378_15906.t29 a_12378_15906.t28 VGND.t31 VGND.t8 sky130_fd_pr__nfet_01v8_lvt ad=0 pd=0 as=0 ps=0 w=4 l=1
**devattr s=23200,858 d=23200,858
X72 BGR_BJT_vref_0.BGR_BJT_stage2_0.vref0.t1 BGR_BJT_vref_0.BGR_BJT_stage1_0.sky130_fd_pr__rf_pnp_05v5_W3p40L3p40_0.Emitter.t14 BGR_BJT_vref_0.BGR_BJT_stage2_0.vr.t11 VGND.t1 sky130_fd_pr__nfet_01v8_lvt ad=0 pd=0 as=0 ps=0 w=4 l=1
**devattr s=23200,858 d=23200,858
X73 a_15996_19807# 3_OTA_0.OTA_vref_0.OTA_vref_stage2_0.vr.t23 VDPWR.t58 VDPWR.t57 sky130_fd_pr__pfet_01v8_lvt ad=0.29 pd=2.58 as=0 ps=0 w=1 l=2
**devattr s=11600,516 d=11600,516
X74 a_6719_5623# a_6631_4391# a_6719_4333# VGND.t39 sky130_fd_pr__nfet_01v8_lvt ad=0.145 pd=1.29 as=0.145 ps=1.29 w=1 l=1
**devattr s=5800,258 d=5800,258
X75 a_16084_17427# a_15996_17227# a_15996_17227# VGND.t16 sky130_fd_pr__nfet_01v8_lvt ad=0.145 pd=1.29 as=0.145 ps=1.29 w=1 l=1
**devattr s=5800,258 d=5800,258
X76 a_21048_25880.t2 3_OTA_0.3rd_3_OTA_0.vd3.t14 a_22654_21988# VGND.t77 sky130_fd_pr__nfet_01v8_lvt ad=0 pd=0 as=0.571714 ps=4.241143 w=3 l=2
**devattr s=17400,658 d=34800,1316
X77 3_OTA_0.OTA_stage1_0.vd2.t1 ua[2].t1 a_3537_27009# VGND.t35 sky130_fd_pr__nfet_01v8_lvt ad=0 pd=0 as=0.966667 ps=7.053333 w=6 l=12
**devattr s=34800,1258 d=69600,2516
X78 a_15996_18517# a_15996_18517# 3_OTA_0.OTA_vref_0.vb1.t5 VGND.t16 sky130_fd_pr__nfet_01v8_lvt ad=0.145 pd=1.29 as=0 ps=0 w=1 l=1
**devattr s=5800,258 d=5800,258
X79 a_21048_27042.t2 3_OTA_0.3rd_3_OTA_0.vd4.t10 a_22654_21988# VGND.t77 sky130_fd_pr__nfet_01v8_lvt ad=0 pd=0 as=0.571714 ps=4.241143 w=3 l=2
**devattr s=17400,658 d=34800,1316
X80 a_12378_15906.t41 3_OTA_0.OTA_vref_0.OTA_vref_stage1_0.sky130_fd_pr__rf_pnp_05v5_W3p40L3p40_0.Emitter.t13 3_OTA_0.OTA_vref_0.OTA_vref_stage2_0.vref0.t13 VGND.t3 sky130_fd_pr__nfet_01v8_lvt ad=0 pd=0 as=0 ps=0 w=4 l=1
**devattr s=23200,858 d=23200,858
X81 3_OTA_0.OTA_vref_0.OTA_vref_stage2_0.vr.t13 3_OTA_0.OTA_vref_0.OTA_vref_stage1_0.sky130_fd_pr__rf_pnp_05v5_W3p40L3p40_0.Emitter.t14 3_OTA_0.OTA_vref_0.OTA_vref_stage2_0.vref0.t25 VGND.t3 sky130_fd_pr__nfet_01v8_lvt ad=0 pd=0 as=0 ps=0 w=4 l=1
**devattr s=23200,858 d=23200,858
X82 a_16084_20007# a_15996_19807# a_15996_19807# VGND.t16 sky130_fd_pr__nfet_01v8_lvt ad=0.145 pd=1.29 as=0.145 ps=1.29 w=1 l=1
**devattr s=5800,258 d=5800,258
X83 VGND.t49 a_3013_4521.t31 a_3013_4521.t32 VGND.t7 sky130_fd_pr__nfet_01v8_lvt ad=0 pd=0 as=0 ps=0 w=4 l=1
**devattr s=23200,858 d=23200,858
X84 3_OTA_0.OTA_vref_0.OTA_vref_stage2_0.vref0.t24 3_OTA_0.OTA_vref_0.OTA_vref_stage1_0.sky130_fd_pr__rf_pnp_05v5_W3p40L3p40_0.Emitter.t15 3_OTA_0.OTA_vref_0.OTA_vref_stage2_0.vr.t19 VGND.t8 sky130_fd_pr__nfet_01v8_lvt ad=0 pd=0 as=0 ps=0 w=4 l=1
**devattr s=23200,858 d=23200,858
X85 a_6719_6913# a_6631_6971# a_6631_6971# VGND.t26 sky130_fd_pr__nfet_01v8_lvt ad=0.145 pd=1.29 as=0.145 ps=1.29 w=1 l=1
**devattr s=5800,258 d=5800,258
X86 a_3013_4521.t30 a_3013_4521.t29 VGND.t85 VGND.t5 sky130_fd_pr__nfet_01v8_lvt ad=0 pd=0 as=0 ps=0 w=4 l=1
**devattr s=23200,858 d=23200,858
X87 a_15996_18517# 3_OTA_0.OTA_vref_0.OTA_vref_stage2_0.vr.t24 VDPWR.t56 VDPWR.t55 sky130_fd_pr__pfet_01v8_lvt ad=0.29 pd=2.58 as=0 ps=0 w=1 l=2
**devattr s=11600,516 d=11600,516
X88 a_12564_25551.t10 3_OTA_0.OTA_vref_0.vb1.t7 VDPWR.t14 VDPWR.t13 sky130_fd_pr__pfet_01v8 ad=0 pd=0 as=0 ps=0 w=7 l=1.8
**devattr s=40600,1458 d=40600,1458
X89 VDPWR.t69 3_OTA_0.OTA_vref_0.vb1.t8 a_12564_25551.t9 VDPWR.t68 sky130_fd_pr__pfet_01v8 ad=0 pd=0 as=0 ps=0 w=7 l=1.8
**devattr s=40600,1458 d=40600,1458
X90 a_21048_27042.t9 a_21048_27042.t8 VDPWR.t18 VDPWR.t17 sky130_fd_pr__pfet_01v8_lvt ad=0 pd=0 as=0 ps=0 w=2.5 l=5
**devattr s=14500,558 d=14500,558
X91 3_OTA_0.OTA_vref_0.OTA_vref_stage2_0.vr.t7 3_OTA_0.OTA_vref_0.OTA_vref_stage1_0.sky130_fd_pr__rf_pnp_05v5_W3p40L3p40_0.Emitter.t16 3_OTA_0.OTA_vref_0.OTA_vref_stage2_0.vref0.t23 VGND.t3 sky130_fd_pr__nfet_01v8_lvt ad=0 pd=0 as=0 ps=0 w=4 l=1
**devattr s=23200,858 d=23200,858
X92 VGND.t52 a_12378_15906.t26 a_12378_15906.t27 VGND.t8 sky130_fd_pr__nfet_01v8_lvt ad=0 pd=0 as=0 ps=0 w=4 l=1
**devattr s=23200,858 d=23200,858
X93 BGR_BJT_vref_0.BGR_BJT_stage1_0.sky130_fd_pr__rf_pnp_05v5_W3p40L3p40_0.Emitter.t1 BGR_BJT_vref_0.BGR_BJT_stage2_0.vr.t22 VDPWR.t42 VDPWR.t39 sky130_fd_pr__pfet_01v8_lvt ad=0 pd=0 as=0 ps=0 w=1 l=1
**devattr s=5800,258 d=11600,516
X94 a_3013_4521.t47 BGR_BJT_vref_0.BGR_BJT_stage1_0.sky130_fd_pr__rf_pnp_05v5_W3p40L3p40_0.Emitter.t15 BGR_BJT_vref_0.BGR_BJT_stage2_0.vref0.t22 VGND.t5 sky130_fd_pr__nfet_01v8_lvt ad=0 pd=0 as=0 ps=0 w=4 l=1
**devattr s=23200,858 d=23200,858
X95 3_OTA_0.3rd_3_OTA_0.vd3.t7 3_OTA_0.3rd_3_OTA_0.vd3.t6 VGND.t76 VGND.t69 sky130_fd_pr__nfet_01v8_lvt ad=0 pd=0 as=0 ps=0 w=1.5 l=9.4
**devattr s=8700,358 d=17400,716
X96 VGND.t88 a_3013_4521.t27 a_3013_4521.t28 VGND.t6 sky130_fd_pr__nfet_01v8_lvt ad=0 pd=0 as=0 ps=0 w=4 l=1
**devattr s=23200,858 d=23200,858
X97 a_6631_5681# a_6631_5681# a_6719_5623# VGND.t39 sky130_fd_pr__nfet_01v8_lvt ad=0.145 pd=1.29 as=0.145 ps=1.29 w=1 l=1
**devattr s=5800,258 d=5800,258
X98 VGND.t14 a_12378_15906.t24 a_12378_15906.t25 VGND.t8 sky130_fd_pr__nfet_01v8_lvt ad=0 pd=0 as=0 ps=0 w=4 l=1
**devattr s=23200,858 d=23200,858
X99 VGND.t84 VGND.t83 BGR_BJT_vref_0.BGR_BJT_stage1_0.sky130_fd_pr__rf_pnp_05v5_W3p40L3p40_0.Emitter.t2 sky130_fd_pr__pnp_05v5_W3p40L3p40
**devattr s=462400,2720
X100 VGND.t45 a_12378_15906.t22 a_12378_15906.t23 VGND.t3 sky130_fd_pr__nfet_01v8_lvt ad=0 pd=0 as=0 ps=0 w=4 l=1
**devattr s=23200,858 d=23200,858
X101 a_6631_3101# a_6631_3101# ua[5].t1 VGND.t18 sky130_fd_pr__nfet_01v8_lvt ad=0.145 pd=1.29 as=0 ps=0 w=1 l=1
**devattr s=5800,258 d=5800,258
X102 BGR_BJT_vref_0.BGR_BJT_stage2_0.vr.t10 BGR_BJT_vref_0.BGR_BJT_stage1_0.sky130_fd_pr__rf_pnp_05v5_W3p40L3p40_0.Emitter.t16 BGR_BJT_vref_0.BGR_BJT_stage2_0.vref0.t32 VGND.t5 sky130_fd_pr__nfet_01v8_lvt ad=0 pd=0 as=0 ps=0 w=4 l=1
**devattr s=23200,858 d=46400,1716
X103 VGND.t12 a_3013_4521.t25 a_3013_4521.t26 VGND.t11 sky130_fd_pr__nfet_01v8_lvt ad=0 pd=0 as=0 ps=0 w=4 l=1
**devattr s=23200,858 d=23200,858
X104 VGND.t75 3_OTA_0.3rd_3_OTA_0.vd3.t4 3_OTA_0.3rd_3_OTA_0.vd3.t5 VGND.t67 sky130_fd_pr__nfet_01v8_lvt ad=0 pd=0 as=0 ps=0 w=1.5 l=9.4
**devattr s=17400,716 d=8700,358
X105 3_OTA_0.OTA_vref_0.OTA_vref_stage2_0.vref0.t22 3_OTA_0.OTA_vref_0.OTA_vref_stage1_0.sky130_fd_pr__rf_pnp_05v5_W3p40L3p40_0.Emitter.t17 3_OTA_0.OTA_vref_0.OTA_vref_stage2_0.vr.t11 VGND.t3 sky130_fd_pr__nfet_01v8_lvt ad=0 pd=0 as=0 ps=0 w=4 l=1
**devattr s=23200,858 d=23200,858
X106 3_OTA_0.OTA_vref_0.OTA_vref_stage2_0.vref0.t21 3_OTA_0.OTA_vref_0.OTA_vref_stage1_0.sky130_fd_pr__rf_pnp_05v5_W3p40L3p40_0.Emitter.t18 3_OTA_0.OTA_vref_0.OTA_vref_stage2_0.vr.t10 VGND.t8 sky130_fd_pr__nfet_01v8_lvt ad=0 pd=0 as=0 ps=0 w=4 l=1
**devattr s=46400,1716 d=23200,858
X107 a_3013_4521.t24 a_3013_4521.t23 VGND.t2 VGND.t1 sky130_fd_pr__nfet_01v8_lvt ad=0 pd=0 as=0 ps=0 w=4 l=1
**devattr s=23200,858 d=23200,858
X108 3_OTA_0.OTA_vref_0.vb a_15996_21097# a_16084_20007# VGND.t16 sky130_fd_pr__nfet_01v8_lvt ad=0.174 pd=1.548 as=0.145 ps=1.29 w=1 l=1
**devattr s=5800,258 d=5800,258
X109 a_3537_27009# ua[3].t2 3_OTA_0.OTA_stage1_0.vd1 VGND.t33 sky130_fd_pr__nfet_01v8_lvt ad=0.966667 pd=7.053333 as=1.74 ps=12.58 w=6 l=12
**devattr s=69600,2516 d=34800,1258
X110 3_OTA_0.3rd_3_OTA_0.vd4.t6 3_OTA_0.3rd_3_OTA_0.vd3.t15 VGND.t74 VGND.t73 sky130_fd_pr__nfet_01v8_lvt ad=0 pd=0 as=0 ps=0 w=1.5 l=9.4
**devattr s=8700,358 d=8700,358
X111 a_15996_17227# a_15996_17227# a_16084_17427# VGND.t16 sky130_fd_pr__nfet_01v8_lvt ad=0.145 pd=1.29 as=0.145 ps=1.29 w=1 l=1
**devattr s=5800,258 d=5800,258
X112 a_3013_4521.t22 a_3013_4521.t21 VGND.t32 VGND.t7 sky130_fd_pr__nfet_01v8_lvt ad=0 pd=0 as=0 ps=0 w=4 l=1
**devattr s=23200,858 d=23200,858
X113 3_OTA_0.3rd_3_OTA_0.vd4.t1 3_OTA_0.OTA_stage1_0.vd1.t2 a_12564_25551.t3 VDPWR.t10 sky130_fd_pr__pfet_01v8_lvt ad=0 pd=0 as=0 ps=0 w=15 l=1.9
**devattr s=87000,3058 d=87000,3058
X114 3_OTA_0.OTA_vref_0.vb1.t4 a_15996_18517# a_15996_18517# VGND.t16 sky130_fd_pr__nfet_01v8_lvt ad=0 pd=0 as=0.145 ps=1.29 w=1 l=1
**devattr s=5800,258 d=5800,258
X115 3_OTA_0.OTA_vref_0.OTA_vref_stage2_0.vref0.t12 3_OTA_0.OTA_vref_0.OTA_vref_stage1_0.sky130_fd_pr__rf_pnp_05v5_W3p40L3p40_0.Emitter.t19 a_12378_15906.t5 VGND.t3 sky130_fd_pr__nfet_01v8_lvt ad=0 pd=0 as=0 ps=0 w=4 l=1
**devattr s=23200,858 d=23200,858
X116 a_22654_21988# 3_OTA_0.OTA_vref_0.vb VGND.t59 VGND.t58 sky130_fd_pr__nfet_01v8 ad=1.048143 pd=7.775429 as=0 ps=0 w=5.5 l=1.5
**devattr s=31900,1158 d=63800,2316
X117 3_OTA_0.OTA_vref_0.OTA_vref_stage2_0.vref0.t11 3_OTA_0.OTA_vref_0.OTA_vref_stage1_0.sky130_fd_pr__rf_pnp_05v5_W3p40L3p40_0.Emitter.t20 a_12378_15906.t7 VGND.t3 sky130_fd_pr__nfet_01v8_lvt ad=0 pd=0 as=0 ps=0 w=4 l=1
**devattr s=23200,858 d=23200,858
X118 VGND.t61 a_12378_15906.t20 a_12378_15906.t21 VGND.t3 sky130_fd_pr__nfet_01v8_lvt ad=0 pd=0 as=0 ps=0 w=4 l=1
**devattr s=23200,858 d=23200,858
X119 a_6719_5623# a_6631_5681# a_6631_5681# VGND.t39 sky130_fd_pr__nfet_01v8_lvt ad=0.145 pd=1.29 as=0.145 ps=1.29 w=1 l=1
**devattr s=5800,258 d=5800,258
X120 BGR_BJT_vref_0.BGR_BJT_stage2_0.vr.t9 BGR_BJT_vref_0.BGR_BJT_stage1_0.sky130_fd_pr__rf_pnp_05v5_W3p40L3p40_0.Emitter.t17 BGR_BJT_vref_0.BGR_BJT_stage2_0.vref0.t2 VGND.t24 sky130_fd_pr__nfet_01v8_lvt ad=0 pd=0 as=0 ps=0 w=4 l=1
**devattr s=23200,858 d=23200,858
X121 VDPWR.t54 3_OTA_0.OTA_vref_0.OTA_vref_stage2_0.vr.t25 3_OTA_0.OTA_vref_0.OTA_vref_stage1_0.sky130_fd_pr__rf_pnp_05v5_W3p40L3p40_0.Emitter.t0 VDPWR.t53 sky130_fd_pr__pfet_01v8_lvt ad=0 pd=0 as=0 ps=0 w=1 l=1
**devattr s=11600,516 d=5800,258
X122 3_OTA_0.OTA_vref_0.OTA_vref_stage2_0.vr.t17 3_OTA_0.OTA_vref_0.OTA_vref_stage1_0.sky130_fd_pr__rf_pnp_05v5_W3p40L3p40_0.Emitter.t21 3_OTA_0.OTA_vref_0.OTA_vref_stage2_0.vref0.t20 VGND.t8 sky130_fd_pr__nfet_01v8_lvt ad=0 pd=0 as=0 ps=0 w=4 l=1
**devattr s=23200,858 d=23200,858
X123 a_6631_6971# a_6631_6971# a_6719_6913# VGND.t27 sky130_fd_pr__nfet_01v8_lvt ad=0.145 pd=1.29 as=0.145 ps=1.29 w=1 l=1
**devattr s=5800,258 d=5800,258
X124 BGR_BJT_vref_0.BGR_BJT_stage2_0.vref0.t9 BGR_BJT_vref_0.BGR_BJT_stage1_0.sky130_fd_pr__rf_pnp_05v5_W3p40L3p40_0.Emitter.t18 BGR_BJT_vref_0.BGR_BJT_stage2_0.vr.t8 VGND.t7 sky130_fd_pr__nfet_01v8_lvt ad=0 pd=0 as=0 ps=0 w=4 l=1
**devattr s=23200,858 d=23200,858
X125 a_12378_15906.t19 a_12378_15906.t18 VGND.t20 VGND.t8 sky130_fd_pr__nfet_01v8_lvt ad=0 pd=0 as=0 ps=0 w=4 l=1
**devattr s=23200,858 d=23200,858
X126 BGR_BJT_vref_0.BGR_BJT_stage2_0.vr.t7 BGR_BJT_vref_0.BGR_BJT_stage1_0.sky130_fd_pr__rf_pnp_05v5_W3p40L3p40_0.Emitter.t19 BGR_BJT_vref_0.BGR_BJT_stage2_0.vref0.t30 VGND.t11 sky130_fd_pr__nfet_01v8_lvt ad=0 pd=0 as=0 ps=0 w=4 l=1
**devattr s=23200,858 d=23200,858
X127 BGR_BJT_vref_0.BGR_BJT_stage2_0.vref0.t11 BGR_BJT_vref_0.BGR_BJT_stage1_0.sky130_fd_pr__rf_pnp_05v5_W3p40L3p40_0.Emitter.t20 BGR_BJT_vref_0.BGR_BJT_stage2_0.vr.t6 VGND.t5 sky130_fd_pr__nfet_01v8_lvt ad=0 pd=0 as=0 ps=0 w=4 l=1
**devattr s=23200,858 d=23200,858
X128 VDPWR.t33 a_18163_10306.t0 ua[1].t0 VDPWR.t31 sky130_fd_pr__pfet_01v8_lvt ad=0 pd=0 as=0 ps=0 w=1.8 l=18
**devattr s=20880,836 d=10440,418
X129 a_21048_27042.t1 3_OTA_0.3rd_3_OTA_0.vd4.t11 a_22654_21988# VGND.t17 sky130_fd_pr__nfet_01v8_lvt ad=0 pd=0 as=0.571714 ps=4.241143 w=3 l=2
**devattr s=17400,658 d=17400,658
X130 a_22654_21988# 3_OTA_0.3rd_3_OTA_0.vd4.t12 a_21048_27042.t0 VGND.t0 sky130_fd_pr__nfet_01v8_lvt ad=0.571714 pd=4.241143 as=0 ps=0 w=3 l=2
**devattr s=17400,658 d=17400,658
X131 a_16084_20007# a_15996_19807# a_15996_19807# VGND.t16 sky130_fd_pr__nfet_01v8_lvt ad=0.145 pd=1.29 as=0.145 ps=1.29 w=1 l=1
**devattr s=5800,258 d=5800,258
X132 a_3537_27009# ua[2].t2 3_OTA_0.OTA_stage1_0.vd2.t0 VGND.t62 sky130_fd_pr__nfet_01v8_lvt ad=0.966667 pd=7.053333 as=0 ps=0 w=6 l=12
**devattr s=69600,2516 d=34800,1258
X133 ua[0].t2 a_25461_23684# VGND.t66 VGND.t65 sky130_fd_pr__nfet_01v8_lvt ad=0 pd=0 as=0 ps=0 w=1 l=0.15
**devattr s=11600,516 d=11600,516
X134 VDPWR.t46 a_21048_27042.t6 a_21048_27042.t7 VDPWR.t29 sky130_fd_pr__pfet_01v8_lvt ad=0 pd=0 as=0 ps=0 w=2.5 l=5
**devattr s=29000,1116 d=14500,558
X135 a_15996_21097# a_15996_21097# 3_OTA_0.OTA_vref_0.vb VGND.t16 sky130_fd_pr__nfet_01v8_lvt ad=0.145 pd=1.29 as=0.174 ps=1.548 w=1 l=1
**devattr s=5800,258 d=5800,258
X136 a_21048_25880.t1 3_OTA_0.3rd_3_OTA_0.vd3.t16 a_22654_21988# VGND.t17 sky130_fd_pr__nfet_01v8_lvt ad=0 pd=0 as=0.571714 ps=4.241143 w=3 l=2
**devattr s=17400,658 d=17400,658
X137 a_22654_21988# 3_OTA_0.3rd_3_OTA_0.vd3.t17 a_21048_25880.t0 VGND.t0 sky130_fd_pr__nfet_01v8_lvt ad=0.571714 pd=4.241143 as=0 ps=0 w=3 l=2
**devattr s=17400,658 d=17400,658
X138 a_12378_15906.t3 3_OTA_0.OTA_vref_0.OTA_vref_stage1_0.sky130_fd_pr__rf_pnp_05v5_W3p40L3p40_0.Emitter.t22 3_OTA_0.OTA_vref_0.OTA_vref_stage2_0.vref0.t10 VGND.t3 sky130_fd_pr__nfet_01v8_lvt ad=0 pd=0 as=0 ps=0 w=4 l=1
**devattr s=23200,858 d=23200,858
X139 a_16084_17427# a_15996_17227# 3_OTA_0.OTA_vref_0.OTA_vref_stage2_0.vref0.t0 VGND.t16 sky130_fd_pr__nfet_01v8_lvt ad=0.145 pd=1.29 as=0 ps=0 w=1 l=1
**devattr s=11600,516 d=5800,258
X140 a_12564_25551.t4 3_OTA_0.OTA_stage1_0.vd1.t3 3_OTA_0.3rd_3_OTA_0.vd4.t0 VDPWR.t43 sky130_fd_pr__pfet_01v8_lvt ad=0 pd=0 as=0 ps=0 w=15 l=1.9
**devattr s=87000,3058 d=87000,3058
X141 VGND.t42 a_3013_4521.t19 a_3013_4521.t20 VGND.t5 sky130_fd_pr__nfet_01v8_lvt ad=0 pd=0 as=0 ps=0 w=4 l=1
**devattr s=23200,858 d=23200,858
X142 3_OTA_0.3rd_3_OTA_0.vd3.t2 3_OTA_0.OTA_stage1_0.vd2.t5 a_12564_25551.t6 VDPWR.t10 sky130_fd_pr__pfet_01v8_lvt ad=0 pd=0 as=0 ps=0 w=15 l=1.9
**devattr s=87000,3058 d=87000,3058
X143 VDPWR.t26 3_OTA_0.OTA_vref_0.vb1.t9 a_12564_25551.t8 VDPWR.t25 sky130_fd_pr__pfet_01v8 ad=0 pd=0 as=0 ps=0 w=7 l=1.8
**devattr s=81200,2916 d=40600,1458
X144 VGND.t72 3_OTA_0.3rd_3_OTA_0.vd3.t10 3_OTA_0.3rd_3_OTA_0.vd3.t11 VGND.t71 sky130_fd_pr__nfet_01v8_lvt ad=0 pd=0 as=0 ps=0 w=1.5 l=9.4
**devattr s=8700,358 d=8700,358
X145 a_12378_15906.t17 a_12378_15906.t16 VGND.t25 VGND.t3 sky130_fd_pr__nfet_01v8_lvt ad=0 pd=0 as=0 ps=0 w=4 l=1
**devattr s=23200,858 d=23200,858
X146 a_12378_15906.t45 3_OTA_0.OTA_vref_0.OTA_vref_stage1_0.sky130_fd_pr__rf_pnp_05v5_W3p40L3p40_0.Emitter.t23 3_OTA_0.OTA_vref_0.OTA_vref_stage2_0.vref0.t9 VGND.t3 sky130_fd_pr__nfet_01v8_lvt ad=0 pd=0 as=0 ps=0 w=4 l=1
**devattr s=23200,858 d=23200,858
X147 VDPWR.t21 3_OTA_0.OTA_stage1_0.vd2.t0 3_OTA_0.OTA_stage1_0.vd2.t2 VDPWR.t19 sky130_fd_pr__pfet_01v8_lvt ad=0 pd=0 as=0 ps=0 w=1.8 l=18
**devattr s=20880,836 d=10440,418
X148 3_OTA_0.OTA_vref_0.OTA_vref_stage2_0.vref0.t8 3_OTA_0.OTA_vref_0.OTA_vref_stage1_0.sky130_fd_pr__rf_pnp_05v5_W3p40L3p40_0.Emitter.t24 a_12378_15906.t6 VGND.t8 sky130_fd_pr__nfet_01v8_lvt ad=0 pd=0 as=0 ps=0 w=4 l=1
**devattr s=23200,858 d=23200,858
X149 a_15996_21097# 3_OTA_0.OTA_vref_0.OTA_vref_stage2_0.vr.t26 VDPWR.t52 VDPWR.t51 sky130_fd_pr__pfet_01v8_lvt ad=0.29 pd=2.58 as=0 ps=0 w=1 l=2
**devattr s=11600,516 d=11600,516
X150 BGR_BJT_vref_0.BGR_BJT_stage2_0.vr.t5 BGR_BJT_vref_0.BGR_BJT_stage1_0.sky130_fd_pr__rf_pnp_05v5_W3p40L3p40_0.Emitter.t21 BGR_BJT_vref_0.BGR_BJT_stage2_0.vref0.t6 VGND.t7 sky130_fd_pr__nfet_01v8_lvt ad=0 pd=0 as=0 ps=0 w=4 l=1
**devattr s=23200,858 d=23200,858
X151 VGND.t29 a_12378_15906.t14 a_12378_15906.t15 VGND.t8 sky130_fd_pr__nfet_01v8_lvt ad=0 pd=0 as=0 ps=0 w=4 l=1
**devattr s=23200,858 d=23200,858
X152 a_6719_6913# a_6631_5681# a_6719_5623# VGND.t39 sky130_fd_pr__nfet_01v8_lvt ad=0.145 pd=1.29 as=0.145 ps=1.29 w=1 l=1
**devattr s=5800,258 d=5800,258
X153 3_OTA_0.OTA_vref_0.vb1.t3 a_15996_18517# a_15996_18517# VGND.t16 sky130_fd_pr__nfet_01v8_lvt ad=0 pd=0 as=0.145 ps=1.29 w=1 l=1
**devattr s=5800,258 d=5800,258
X154 VGND.t9 a_12378_15906.t12 a_12378_15906.t13 VGND.t8 sky130_fd_pr__nfet_01v8_lvt ad=0 pd=0 as=0 ps=0 w=4 l=1
**devattr s=23200,858 d=23200,858
X155 BGR_BJT_vref_0.BGR_BJT_stage2_0.vref0.t21 BGR_BJT_vref_0.BGR_BJT_stage1_0.sky130_fd_pr__rf_pnp_05v5_W3p40L3p40_0.Emitter.t22 a_3013_4521.t9 VGND.t11 sky130_fd_pr__nfet_01v8_lvt ad=0 pd=0 as=0 ps=0 w=4 l=1
**devattr s=23200,858 d=23200,858
X156 BGR_BJT_vref_0.BGR_BJT_stage2_0.vr.t4 BGR_BJT_vref_0.BGR_BJT_stage1_0.sky130_fd_pr__rf_pnp_05v5_W3p40L3p40_0.Emitter.t23 BGR_BJT_vref_0.BGR_BJT_stage2_0.vref0.t3 VGND.t1 sky130_fd_pr__nfet_01v8_lvt ad=0 pd=0 as=0 ps=0 w=4 l=1
**devattr s=23200,858 d=23200,858
X157 a_21048_25880.t7 a_21048_25880.t6 VDPWR.t67 VDPWR.t17 sky130_fd_pr__pfet_01v8_lvt ad=0 pd=0 as=0 ps=0 w=2.5 l=5
**devattr s=14500,558 d=14500,558