* NGSPICE file created from BGR_BJT_final_flat.ext - technology: sky130A

.subckt BGR_BJT_final_flat vcc vss vref
X0 BGR_BJT_stage1_0.vref0.t21 BGR_BJT_stage1_0.sky130_fd_pr__rf_pnp_05v5_W3p40L3p40_0.Emitter.t3 BGR_BJT_stage1_0.vr.t9 vss.t8 sky130_fd_pr__nfet_01v8_lvt ad=0 pd=0 as=0 ps=0 w=4 l=1
**devattr s=23200,858 d=23200,858
X1 vss.t26 a_365_2822.t30 a_365_2822.t31 vss.t25 sky130_fd_pr__nfet_01v8_lvt ad=0 pd=0 as=0 ps=0 w=4 l=1
**devattr s=23200,858 d=46400,1716
X2 a_2451_1374# a_2251_1286# BGR_BJT_stage1_0.vref0.t0 vss.t48 sky130_fd_pr__nfet_01v8_lvt ad=0.145 pd=1.29 as=0 ps=0 w=1 l=1
**devattr s=11600,516 d=5800,258
X3 a_3741_1374# a_3541_1286# a_3541_1286# vss.t16 sky130_fd_pr__nfet_01v8_lvt ad=0.145 pd=1.29 as=0.145 ps=1.29 w=1 l=1
**devattr s=5800,258 d=5800,258
X4 a_365_2822.t47 BGR_BJT_stage1_0.sky130_fd_pr__rf_pnp_05v5_W3p40L3p40_0.Emitter.t4 BGR_BJT_stage1_0.vref0.t27 vss.t53 sky130_fd_pr__nfet_01v8_lvt ad=0 pd=0 as=0 ps=0 w=4 l=1
**devattr s=23200,858 d=23200,858
X5 vss.t43 vss.t42 BGR_BJT_stage1_0.sky130_fd_pr__rf_pnp_05v5_W3p40L3p40_0.Emitter.t2 sky130_fd_pr__pnp_05v5_W3p40L3p40
**devattr s=462400,2720
X6 vcc.t17 BGR_BJT_stage1_0.vr.t2 BGR_BJT_stage1_0.vr.t3 vcc.t16 sky130_fd_pr__pfet_01v8_lvt ad=0 pd=0 as=0 ps=0 w=0.5 l=2
**devattr s=5800,316 d=2900,158
X7 a_365_2822.t46 BGR_BJT_stage1_0.sky130_fd_pr__rf_pnp_05v5_W3p40L3p40_0.Emitter.t5 BGR_BJT_stage1_0.vref0.t29 vss.t55 sky130_fd_pr__nfet_01v8_lvt ad=0 pd=0 as=0 ps=0 w=4 l=1
**devattr s=23200,858 d=23200,858
X8 a_365_2822.t29 a_365_2822.t28 vss.t34 vss.t33 sky130_fd_pr__nfet_01v8_lvt ad=0 pd=0 as=0 ps=0 w=4 l=1
**devattr s=23200,858 d=23200,858
X9 BGR_BJT_stage1_0.vr.t14 BGR_BJT_stage1_0.sky130_fd_pr__rf_pnp_05v5_W3p40L3p40_0.Emitter.t6 BGR_BJT_stage1_0.vref0.t20 vss.t6 sky130_fd_pr__nfet_01v8_lvt ad=0 pd=0 as=0 ps=0 w=4 l=1
**devattr s=23200,858 d=23200,858
X10 a_365_2822.t45 BGR_BJT_stage1_0.sky130_fd_pr__rf_pnp_05v5_W3p40L3p40_0.Emitter.t7 BGR_BJT_stage1_0.vref0.t28 vss.t54 sky130_fd_pr__nfet_01v8_lvt ad=0 pd=0 as=0 ps=0 w=4 l=1
**devattr s=23200,858 d=23200,858
X11 vss.t28 a_365_2822.t26 a_365_2822.t27 vss.t27 sky130_fd_pr__nfet_01v8_lvt ad=0 pd=0 as=0 ps=0 w=4 l=1
**devattr s=23200,858 d=23200,858
X12 a_2251_1286# BGR_BJT_stage1_0.vr.t20 vcc.t7 vcc.t6 sky130_fd_pr__pfet_01v8_lvt ad=0.29 pd=2.58 as=0 ps=0 w=1 l=2
**devattr s=11600,516 d=11600,516
X13 a_4831_1286# BGR_BJT_stage1_0.vr.t21 vcc.t15 vcc.t14 sky130_fd_pr__pfet_01v8_lvt ad=0.29 pd=2.58 as=0 ps=0 w=1 l=2
**devattr s=11600,516 d=11600,516
X14 a_365_2822.t44 BGR_BJT_stage1_0.sky130_fd_pr__rf_pnp_05v5_W3p40L3p40_0.Emitter.t8 BGR_BJT_stage1_0.vref0.t1 vss.t51 sky130_fd_pr__nfet_01v8_lvt ad=0 pd=0 as=0 ps=0 w=4 l=1
**devattr s=23200,858 d=23200,858
X15 BGR_BJT_stage1_0.vref0.t19 BGR_BJT_stage1_0.sky130_fd_pr__rf_pnp_05v5_W3p40L3p40_0.Emitter.t9 BGR_BJT_stage1_0.vr.t16 vss.t10 sky130_fd_pr__nfet_01v8_lvt ad=0 pd=0 as=0 ps=0 w=4 l=1
**devattr s=23200,858 d=23200,858
X16 a_365_2822.t43 BGR_BJT_stage1_0.sky130_fd_pr__rf_pnp_05v5_W3p40L3p40_0.Emitter.t10 BGR_BJT_stage1_0.vref0.t22 vss.t49 sky130_fd_pr__nfet_01v8_lvt ad=0 pd=0 as=0 ps=0 w=4 l=1
**devattr s=23200,858 d=23200,858
X17 vss.t18 a_365_2822.t24 a_365_2822.t25 vss.t17 sky130_fd_pr__nfet_01v8_lvt ad=0 pd=0 as=0 ps=0 w=4 l=1
**devattr s=23200,858 d=23200,858
X18 BGR_BJT_stage1_0.vref0.t18 BGR_BJT_stage1_0.sky130_fd_pr__rf_pnp_05v5_W3p40L3p40_0.Emitter.t11 BGR_BJT_stage1_0.vr.t8 vss.t35 sky130_fd_pr__nfet_01v8_lvt ad=0 pd=0 as=0 ps=0 w=4 l=1
**devattr s=46400,1716 d=23200,858
X19 a_365_2822.t42 BGR_BJT_stage1_0.sky130_fd_pr__rf_pnp_05v5_W3p40L3p40_0.Emitter.t12 BGR_BJT_stage1_0.vref0.t26 vss.t43 sky130_fd_pr__nfet_01v8_lvt ad=0 pd=0 as=0 ps=0 w=4 l=1
**devattr s=23200,858 d=23200,858
X20 BGR_BJT_stage1_0.vref0.t2 BGR_BJT_stage1_0.sky130_fd_pr__rf_pnp_05v5_W3p40L3p40_0.Emitter.t13 a_365_2822.t41 vss.t50 sky130_fd_pr__nfet_01v8_lvt ad=0 pd=0 as=0 ps=0 w=4 l=1
**devattr s=23200,858 d=23200,858
X21 a_5031_1374# a_4831_1286# a_4831_1286# vss.t60 sky130_fd_pr__nfet_01v8_lvt ad=0.145 pd=1.29 as=0.145 ps=1.29 w=1 l=1
**devattr s=5800,258 d=5800,258
X22 a_4831_1286# a_4831_1286# a_5031_1374# vss.t59 sky130_fd_pr__nfet_01v8_lvt ad=0.145 pd=1.29 as=0.145 ps=1.29 w=1 l=1
**devattr s=5800,258 d=5800,258
X23 BGR_BJT_stage1_0.vr.t1 BGR_BJT_stage1_0.vr.t0 vcc.t3 vcc.t2 sky130_fd_pr__pfet_01v8_lvt ad=0 pd=0 as=0 ps=0 w=0.5 l=2
**devattr s=2900,158 d=5800,316
X24 a_365_2822.t23 a_365_2822.t22 vss.t1 vss.t0 sky130_fd_pr__nfet_01v8_lvt ad=0 pd=0 as=0 ps=0 w=4 l=1
**devattr s=23200,858 d=23200,858
X25 a_2251_1286# a_2251_1286# a_2451_1374# vss.t47 sky130_fd_pr__nfet_01v8_lvt ad=0.145 pd=1.29 as=0.145 ps=1.29 w=1 l=1
**devattr s=5800,258 d=5800,258
X26 a_4831_1286# a_4831_1286# a_5031_1374# vss.t58 sky130_fd_pr__nfet_01v8_lvt ad=0.145 pd=1.29 as=0.145 ps=1.29 w=1 l=1
**devattr s=5800,258 d=5800,258
X27 vref.t4 a_6121_1286# a_6121_1286# vss.t41 sky130_fd_pr__nfet_01v8_lvt ad=0 pd=0 as=0.145 ps=1.29 w=1 l=1
**devattr s=5800,258 d=11600,516
X28 BGR_BJT_stage1_0.sky130_fd_pr__rf_pnp_05v5_W3p40L3p40_0.Emitter.t0 BGR_BJT_stage1_0.vr.t22 vcc.t13 vcc.t12 sky130_fd_pr__pfet_01v8_lvt ad=0 pd=0 as=0 ps=0 w=1 l=1
**devattr s=5800,258 d=11600,516
X29 a_3541_1286# BGR_BJT_stage1_0.vr.t23 vcc.t11 vcc.t10 sky130_fd_pr__pfet_01v8_lvt ad=0.29 pd=2.58 as=0 ps=0 w=1 l=2
**devattr s=11600,516 d=11600,516
X30 a_6121_1286# BGR_BJT_stage1_0.vr.t24 vcc.t9 vcc.t8 sky130_fd_pr__pfet_01v8_lvt ad=0.29 pd=2.58 as=0 ps=0 w=1 l=2
**devattr s=11600,516 d=11600,516
X31 BGR_BJT_stage1_0.vref0.t17 BGR_BJT_stage1_0.sky130_fd_pr__rf_pnp_05v5_W3p40L3p40_0.Emitter.t14 BGR_BJT_stage1_0.vr.t18 vss.t23 sky130_fd_pr__nfet_01v8_lvt ad=0 pd=0 as=0 ps=0 w=4 l=1
**devattr s=23200,858 d=23200,858
X32 vss.t30 a_365_2822.t20 a_365_2822.t21 vss.t29 sky130_fd_pr__nfet_01v8_lvt ad=0 pd=0 as=0 ps=0 w=4 l=1
**devattr s=23200,858 d=23200,858
X33 BGR_BJT_stage1_0.vr.t11 BGR_BJT_stage1_0.sky130_fd_pr__rf_pnp_05v5_W3p40L3p40_0.Emitter.t15 BGR_BJT_stage1_0.vref0.t16 vss.t21 sky130_fd_pr__nfet_01v8_lvt ad=0 pd=0 as=0 ps=0 w=4 l=1
**devattr s=23200,858 d=23200,858
X34 a_365_2822.t19 a_365_2822.t18 vss.t20 vss.t19 sky130_fd_pr__nfet_01v8_lvt ad=0 pd=0 as=0 ps=0 w=4 l=1
**devattr s=23200,858 d=23200,858
X35 BGR_BJT_stage1_0.vref0.t23 BGR_BJT_stage1_0.sky130_fd_pr__rf_pnp_05v5_W3p40L3p40_0.Emitter.t16 a_365_2822.t40 vss.t52 sky130_fd_pr__nfet_01v8_lvt ad=0 pd=0 as=0 ps=0 w=4 l=1
**devattr s=23200,858 d=23200,858
X36 BGR_BJT_stage1_0.vref0.t15 BGR_BJT_stage1_0.sky130_fd_pr__rf_pnp_05v5_W3p40L3p40_0.Emitter.t17 BGR_BJT_stage1_0.vr.t6 vss.t31 sky130_fd_pr__nfet_01v8_lvt ad=0 pd=0 as=0 ps=0 w=4 l=1
**devattr s=23200,858 d=23200,858
X37 vss.t5 a_365_2822.t16 a_365_2822.t17 vss.t4 sky130_fd_pr__nfet_01v8_lvt ad=0 pd=0 as=0 ps=0 w=4 l=1
**devattr s=23200,858 d=23200,858
X38 BGR_BJT_stage1_0.vref0.t25 BGR_BJT_stage1_0.sky130_fd_pr__rf_pnp_05v5_W3p40L3p40_0.Emitter.t18 a_365_2822.t39 vss.t55 sky130_fd_pr__nfet_01v8_lvt ad=0 pd=0 as=0 ps=0 w=4 l=1
**devattr s=23200,858 d=23200,858
X39 BGR_BJT_stage1_0.vr.t17 BGR_BJT_stage1_0.sky130_fd_pr__rf_pnp_05v5_W3p40L3p40_0.Emitter.t19 BGR_BJT_stage1_0.vref0.t14 vss.t27 sky130_fd_pr__nfet_01v8_lvt ad=0 pd=0 as=0 ps=0 w=4 l=1
**devattr s=23200,858 d=23200,858
X40 a_3541_1286# a_3541_1286# a_3741_1374# vss.t15 sky130_fd_pr__nfet_01v8_lvt ad=0.145 pd=1.29 as=0.145 ps=1.29 w=1 l=1
**devattr s=5800,258 d=5800,258
X41 a_5031_1374# a_4831_1286# a_4831_1286# vss.t57 sky130_fd_pr__nfet_01v8_lvt ad=0.145 pd=1.29 as=0.145 ps=1.29 w=1 l=1
**devattr s=5800,258 d=5800,258
X42 BGR_BJT_stage1_0.vref0.t13 BGR_BJT_stage1_0.sky130_fd_pr__rf_pnp_05v5_W3p40L3p40_0.Emitter.t20 BGR_BJT_stage1_0.vr.t13 vss.t33 sky130_fd_pr__nfet_01v8_lvt ad=0 pd=0 as=0 ps=0 w=4 l=1
**devattr s=23200,858 d=23200,858
X43 vss.t7 a_365_2822.t14 a_365_2822.t15 vss.t6 sky130_fd_pr__nfet_01v8_lvt ad=0 pd=0 as=0 ps=0 w=4 l=1
**devattr s=23200,858 d=23200,858
X44 BGR_BJT_stage1_0.vref0.t3 BGR_BJT_stage1_0.sky130_fd_pr__rf_pnp_05v5_W3p40L3p40_0.Emitter.t21 a_365_2822.t38 vss.t54 sky130_fd_pr__nfet_01v8_lvt ad=0 pd=0 as=0 ps=0 w=4 l=1
**devattr s=23200,858 d=23200,858
X45 a_2451_1374# a_2251_1286# a_2251_1286# vss.t46 sky130_fd_pr__nfet_01v8_lvt ad=0.145 pd=1.29 as=0.145 ps=1.29 w=1 l=1
**devattr s=5800,258 d=5800,258
X46 a_3741_1374# a_3541_1286# a_2451_1374# vss.t14 sky130_fd_pr__nfet_01v8_lvt ad=0.145 pd=1.29 as=0.145 ps=1.29 w=1 l=1
**devattr s=5800,258 d=5800,258
X47 vcc.t5 BGR_BJT_stage1_0.vr.t25 BGR_BJT_stage1_0.sky130_fd_pr__rf_pnp_05v5_W3p40L3p40_0.Emitter.t1 vcc.t4 sky130_fd_pr__pfet_01v8_lvt ad=0 pd=0 as=0 ps=0 w=1 l=1
**devattr s=11600,516 d=5800,258
X48 BGR_BJT_stage1_0.vref0.t32 BGR_BJT_stage1_0.sky130_fd_pr__rf_pnp_05v5_W3p40L3p40_0.Emitter.t22 a_365_2822.t37 vss.t43 sky130_fd_pr__nfet_01v8_lvt ad=0 pd=0 as=0 ps=0 w=4 l=1
**devattr s=23200,858 d=23200,858
X49 a_365_2822.t13 a_365_2822.t12 vss.t36 vss.t35 sky130_fd_pr__nfet_01v8_lvt ad=0 pd=0 as=0 ps=0 w=4 l=1
**devattr s=46400,1716 d=23200,858
X50 vss.t3 a_365_2822.t10 a_365_2822.t11 vss.t2 sky130_fd_pr__nfet_01v8_lvt ad=0 pd=0 as=0 ps=0 w=4 l=1
**devattr s=23200,858 d=23200,858
X51 a_365_2822.t9 a_365_2822.t8 vss.t9 vss.t8 sky130_fd_pr__nfet_01v8_lvt ad=0 pd=0 as=0 ps=0 w=4 l=1
**devattr s=23200,858 d=23200,858
X52 BGR_BJT_stage1_0.vr.t19 BGR_BJT_stage1_0.sky130_fd_pr__rf_pnp_05v5_W3p40L3p40_0.Emitter.t23 BGR_BJT_stage1_0.vref0.t12 vss.t25 sky130_fd_pr__nfet_01v8_lvt ad=0 pd=0 as=0 ps=0 w=4 l=1
**devattr s=23200,858 d=46400,1716
X53 BGR_BJT_stage1_0.vref0.t4 BGR_BJT_stage1_0.sky130_fd_pr__rf_pnp_05v5_W3p40L3p40_0.Emitter.t24 a_365_2822.t36 vss.t53 sky130_fd_pr__nfet_01v8_lvt ad=0 pd=0 as=0 ps=0 w=4 l=1
**devattr s=23200,858 d=23200,858
X54 a_365_2822.t7 a_365_2822.t6 vss.t24 vss.t23 sky130_fd_pr__nfet_01v8_lvt ad=0 pd=0 as=0 ps=0 w=4 l=1
**devattr s=23200,858 d=23200,858
X55 BGR_BJT_stage1_0.vr.t5 BGR_BJT_stage1_0.sky130_fd_pr__rf_pnp_05v5_W3p40L3p40_0.Emitter.t25 BGR_BJT_stage1_0.vref0.t11 vss.t29 sky130_fd_pr__nfet_01v8_lvt ad=0 pd=0 as=0 ps=0 w=4 l=1
**devattr s=23200,858 d=23200,858
X56 a_365_2822.t35 BGR_BJT_stage1_0.sky130_fd_pr__rf_pnp_05v5_W3p40L3p40_0.Emitter.t26 BGR_BJT_stage1_0.vref0.t30 vss.t52 sky130_fd_pr__nfet_01v8_lvt ad=0 pd=0 as=0 ps=0 w=4 l=1
**devattr s=23200,858 d=23200,858
X57 vss.t22 a_365_2822.t4 a_365_2822.t5 vss.t21 sky130_fd_pr__nfet_01v8_lvt ad=0 pd=0 as=0 ps=0 w=4 l=1
**devattr s=23200,858 d=23200,858
X58 a_365_2822.t3 a_365_2822.t2 vss.t32 vss.t31 sky130_fd_pr__nfet_01v8_lvt ad=0 pd=0 as=0 ps=0 w=4 l=1
**devattr s=23200,858 d=23200,858
X59 BGR_BJT_stage1_0.vref0.t10 BGR_BJT_stage1_0.sky130_fd_pr__rf_pnp_05v5_W3p40L3p40_0.Emitter.t27 BGR_BJT_stage1_0.vr.t4 vss.t19 sky130_fd_pr__nfet_01v8_lvt ad=0 pd=0 as=0 ps=0 w=4 l=1
**devattr s=23200,858 d=23200,858
X60 a_2251_1286# a_2251_1286# a_2451_1374# vss.t45 sky130_fd_pr__nfet_01v8_lvt ad=0.145 pd=1.29 as=0.145 ps=1.29 w=1 l=1
**devattr s=5800,258 d=5800,258
X61 a_3541_1286# a_3541_1286# a_3741_1374# vss.t13 sky130_fd_pr__nfet_01v8_lvt ad=0.145 pd=1.29 as=0.145 ps=1.29 w=1 l=1
**devattr s=5800,258 d=5800,258
X62 a_6121_1286# a_6121_1286# vref.t3 vss.t40 sky130_fd_pr__nfet_01v8_lvt ad=0.145 pd=1.29 as=0 ps=0 w=1 l=1
**devattr s=5800,258 d=5800,258
X63 vref.t2 a_6121_1286# a_6121_1286# vss.t39 sky130_fd_pr__nfet_01v8_lvt ad=0 pd=0 as=0.145 ps=1.29 w=1 l=1
**devattr s=5800,258 d=5800,258
X64 a_3741_1374# a_3541_1286# a_3541_1286# vss.t12 sky130_fd_pr__nfet_01v8_lvt ad=0.145 pd=1.29 as=0.145 ps=1.29 w=1 l=1
**devattr s=5800,258 d=5800,258
X65 vref.t5 a_6121_1286# a_5031_1374# vss.t38 sky130_fd_pr__nfet_01v8_lvt ad=0 pd=0 as=0.145 ps=1.29 w=1 l=1
**devattr s=5800,258 d=5800,258
X66 BGR_BJT_stage1_0.vr.t10 BGR_BJT_stage1_0.sky130_fd_pr__rf_pnp_05v5_W3p40L3p40_0.Emitter.t28 BGR_BJT_stage1_0.vref0.t9 vss.t4 sky130_fd_pr__nfet_01v8_lvt ad=0 pd=0 as=0 ps=0 w=4 l=1
**devattr s=23200,858 d=23200,858
X67 BGR_BJT_stage1_0.vref0.t5 BGR_BJT_stage1_0.sky130_fd_pr__rf_pnp_05v5_W3p40L3p40_0.Emitter.t29 a_365_2822.t34 vss.t51 sky130_fd_pr__nfet_01v8_lvt ad=0 pd=0 as=0 ps=0 w=4 l=1
**devattr s=23200,858 d=23200,858
X68 a_365_2822.t1 a_365_2822.t0 vss.t11 vss.t10 sky130_fd_pr__nfet_01v8_lvt ad=0 pd=0 as=0 ps=0 w=4 l=1
**devattr s=23200,858 d=23200,858
X69 BGR_BJT_stage1_0.vr.t12 BGR_BJT_stage1_0.sky130_fd_pr__rf_pnp_05v5_W3p40L3p40_0.Emitter.t30 BGR_BJT_stage1_0.vref0.t8 vss.t17 sky130_fd_pr__nfet_01v8_lvt ad=0 pd=0 as=0 ps=0 w=4 l=1
**devattr s=23200,858 d=23200,858
X70 a_365_2822.t33 BGR_BJT_stage1_0.sky130_fd_pr__rf_pnp_05v5_W3p40L3p40_0.Emitter.t31 BGR_BJT_stage1_0.vref0.t31 vss.t50 sky130_fd_pr__nfet_01v8_lvt ad=0 pd=0 as=0 ps=0 w=4 l=1
**devattr s=23200,858 d=23200,858
X71 BGR_BJT_stage1_0.vref0.t24 BGR_BJT_stage1_0.sky130_fd_pr__rf_pnp_05v5_W3p40L3p40_0.Emitter.t32 a_365_2822.t32 vss.t49 sky130_fd_pr__nfet_01v8_lvt ad=0 pd=0 as=0 ps=0 w=4 l=1
**devattr s=23200,858 d=23200,858
X72 vref.t0 BGR_BJT_stage1_0.vr.t26 vcc.t1 vcc.t0 sky130_fd_pr__pfet_01v8_lvt ad=0 pd=0 as=0 ps=0 w=1 l=2
**devattr s=11600,516 d=11600,516
X73 BGR_BJT_stage1_0.vref0.t7 BGR_BJT_stage1_0.sky130_fd_pr__rf_pnp_05v5_W3p40L3p40_0.Emitter.t33 BGR_BJT_stage1_0.vr.t15 vss.t0 sky130_fd_pr__nfet_01v8_lvt ad=0 pd=0 as=0 ps=0 w=4 l=1
**devattr s=23200,858 d=23200,858
X74 BGR_BJT_stage1_0.vr.t7 BGR_BJT_stage1_0.sky130_fd_pr__rf_pnp_05v5_W3p40L3p40_0.Emitter.t34 BGR_BJT_stage1_0.vref0.t6 vss.t2 sky130_fd_pr__nfet_01v8_lvt ad=0 pd=0 as=0 ps=0 w=4 l=1
**devattr s=23200,858 d=23200,858
X75 a_2451_1374# a_2251_1286# a_2251_1286# vss.t44 sky130_fd_pr__nfet_01v8_lvt ad=0.145 pd=1.29 as=0.145 ps=1.29 w=1 l=1
**devattr s=5800,258 d=5800,258
X76 a_5031_1374# a_4831_1286# a_3741_1374# vss.t56 sky130_fd_pr__nfet_01v8_lvt ad=0.145 pd=1.29 as=0.145 ps=1.29 w=1 l=1
**devattr s=5800,258 d=5800,258
X77 a_6121_1286# a_6121_1286# vref.t1 vss.t37 sky130_fd_pr__nfet_01v8_lvt ad=0.145 pd=1.29 as=0 ps=0 w=1 l=1
**devattr s=5800,258 d=5800,258
R0 BGR_BJT_stage1_0.sky130_fd_pr__rf_pnp_05v5_W3p40L3p40_0.Emitter.n80 BGR_BJT_stage1_0.sky130_fd_pr__rf_pnp_05v5_W3p40L3p40_0.Emitter.t1 235.982
R1 BGR_BJT_stage1_0.sky130_fd_pr__rf_pnp_05v5_W3p40L3p40_0.Emitter.n80 BGR_BJT_stage1_0.sky130_fd_pr__rf_pnp_05v5_W3p40L3p40_0.Emitter.t0 235.978
R2 BGR_BJT_stage1_0.sky130_fd_pr__rf_pnp_05v5_W3p40L3p40_0.Emitter.t12 BGR_BJT_stage1_0.sky130_fd_pr__rf_pnp_05v5_W3p40L3p40_0.Emitter.n73 190.305
R3 BGR_BJT_stage1_0.sky130_fd_pr__rf_pnp_05v5_W3p40L3p40_0.Emitter.n75 BGR_BJT_stage1_0.sky130_fd_pr__rf_pnp_05v5_W3p40L3p40_0.Emitter.t12 190.305
R4 BGR_BJT_stage1_0.sky130_fd_pr__rf_pnp_05v5_W3p40L3p40_0.Emitter.n61 BGR_BJT_stage1_0.sky130_fd_pr__rf_pnp_05v5_W3p40L3p40_0.Emitter.t31 190.305
R5 BGR_BJT_stage1_0.sky130_fd_pr__rf_pnp_05v5_W3p40L3p40_0.Emitter.t31 BGR_BJT_stage1_0.sky130_fd_pr__rf_pnp_05v5_W3p40L3p40_0.Emitter.n60 190.305
R6 BGR_BJT_stage1_0.sky130_fd_pr__rf_pnp_05v5_W3p40L3p40_0.Emitter.n56 BGR_BJT_stage1_0.sky130_fd_pr__rf_pnp_05v5_W3p40L3p40_0.Emitter.t15 190.305
R7 BGR_BJT_stage1_0.sky130_fd_pr__rf_pnp_05v5_W3p40L3p40_0.Emitter.n58 BGR_BJT_stage1_0.sky130_fd_pr__rf_pnp_05v5_W3p40L3p40_0.Emitter.t15 190.305
R8 BGR_BJT_stage1_0.sky130_fd_pr__rf_pnp_05v5_W3p40L3p40_0.Emitter.t6 BGR_BJT_stage1_0.sky130_fd_pr__rf_pnp_05v5_W3p40L3p40_0.Emitter.n35 190.305
R9 BGR_BJT_stage1_0.sky130_fd_pr__rf_pnp_05v5_W3p40L3p40_0.Emitter.n36 BGR_BJT_stage1_0.sky130_fd_pr__rf_pnp_05v5_W3p40L3p40_0.Emitter.t6 190.305
R10 BGR_BJT_stage1_0.sky130_fd_pr__rf_pnp_05v5_W3p40L3p40_0.Emitter.t30 BGR_BJT_stage1_0.sky130_fd_pr__rf_pnp_05v5_W3p40L3p40_0.Emitter.n16 190.305
R11 BGR_BJT_stage1_0.sky130_fd_pr__rf_pnp_05v5_W3p40L3p40_0.Emitter.n17 BGR_BJT_stage1_0.sky130_fd_pr__rf_pnp_05v5_W3p40L3p40_0.Emitter.t30 190.305
R12 BGR_BJT_stage1_0.sky130_fd_pr__rf_pnp_05v5_W3p40L3p40_0.Emitter.n3 BGR_BJT_stage1_0.sky130_fd_pr__rf_pnp_05v5_W3p40L3p40_0.Emitter.t24 95.3656
R13 BGR_BJT_stage1_0.sky130_fd_pr__rf_pnp_05v5_W3p40L3p40_0.Emitter.n34 BGR_BJT_stage1_0.sky130_fd_pr__rf_pnp_05v5_W3p40L3p40_0.Emitter.t29 95.1789
R14 BGR_BJT_stage1_0.sky130_fd_pr__rf_pnp_05v5_W3p40L3p40_0.Emitter.n15 BGR_BJT_stage1_0.sky130_fd_pr__rf_pnp_05v5_W3p40L3p40_0.Emitter.t32 95.1648
R15 BGR_BJT_stage1_0.sky130_fd_pr__rf_pnp_05v5_W3p40L3p40_0.Emitter.n3 BGR_BJT_stage1_0.sky130_fd_pr__rf_pnp_05v5_W3p40L3p40_0.Emitter.t23 95.1535
R16 BGR_BJT_stage1_0.sky130_fd_pr__rf_pnp_05v5_W3p40L3p40_0.Emitter.n57 BGR_BJT_stage1_0.sky130_fd_pr__rf_pnp_05v5_W3p40L3p40_0.Emitter.t16 94.8416
R17 BGR_BJT_stage1_0.sky130_fd_pr__rf_pnp_05v5_W3p40L3p40_0.Emitter.n74 BGR_BJT_stage1_0.sky130_fd_pr__rf_pnp_05v5_W3p40L3p40_0.Emitter.t11 94.841
R18 BGR_BJT_stage1_0.sky130_fd_pr__rf_pnp_05v5_W3p40L3p40_0.Emitter.n53 BGR_BJT_stage1_0.sky130_fd_pr__rf_pnp_05v5_W3p40L3p40_0.Emitter.t14 94.8396
R19 BGR_BJT_stage1_0.sky130_fd_pr__rf_pnp_05v5_W3p40L3p40_0.Emitter.n68 BGR_BJT_stage1_0.sky130_fd_pr__rf_pnp_05v5_W3p40L3p40_0.Emitter.t20 94.8314
R20 BGR_BJT_stage1_0.sky130_fd_pr__rf_pnp_05v5_W3p40L3p40_0.Emitter.n64 BGR_BJT_stage1_0.sky130_fd_pr__rf_pnp_05v5_W3p40L3p40_0.Emitter.t22 94.8314
R21 BGR_BJT_stage1_0.sky130_fd_pr__rf_pnp_05v5_W3p40L3p40_0.Emitter.n66 BGR_BJT_stage1_0.sky130_fd_pr__rf_pnp_05v5_W3p40L3p40_0.Emitter.t28 94.8314
R22 BGR_BJT_stage1_0.sky130_fd_pr__rf_pnp_05v5_W3p40L3p40_0.Emitter.n70 BGR_BJT_stage1_0.sky130_fd_pr__rf_pnp_05v5_W3p40L3p40_0.Emitter.t26 94.8314
R23 BGR_BJT_stage1_0.sky130_fd_pr__rf_pnp_05v5_W3p40L3p40_0.Emitter.n47 BGR_BJT_stage1_0.sky130_fd_pr__rf_pnp_05v5_W3p40L3p40_0.Emitter.t9 94.8314
R24 BGR_BJT_stage1_0.sky130_fd_pr__rf_pnp_05v5_W3p40L3p40_0.Emitter.n43 BGR_BJT_stage1_0.sky130_fd_pr__rf_pnp_05v5_W3p40L3p40_0.Emitter.t13 94.8314
R25 BGR_BJT_stage1_0.sky130_fd_pr__rf_pnp_05v5_W3p40L3p40_0.Emitter.n45 BGR_BJT_stage1_0.sky130_fd_pr__rf_pnp_05v5_W3p40L3p40_0.Emitter.t34 94.8314
R26 BGR_BJT_stage1_0.sky130_fd_pr__rf_pnp_05v5_W3p40L3p40_0.Emitter.n49 BGR_BJT_stage1_0.sky130_fd_pr__rf_pnp_05v5_W3p40L3p40_0.Emitter.t8 94.8314
R27 BGR_BJT_stage1_0.sky130_fd_pr__rf_pnp_05v5_W3p40L3p40_0.Emitter.n39 BGR_BJT_stage1_0.sky130_fd_pr__rf_pnp_05v5_W3p40L3p40_0.Emitter.t5 94.8314
R28 BGR_BJT_stage1_0.sky130_fd_pr__rf_pnp_05v5_W3p40L3p40_0.Emitter.n37 BGR_BJT_stage1_0.sky130_fd_pr__rf_pnp_05v5_W3p40L3p40_0.Emitter.t17 94.8314
R29 BGR_BJT_stage1_0.sky130_fd_pr__rf_pnp_05v5_W3p40L3p40_0.Emitter.n28 BGR_BJT_stage1_0.sky130_fd_pr__rf_pnp_05v5_W3p40L3p40_0.Emitter.t3 94.8314
R30 BGR_BJT_stage1_0.sky130_fd_pr__rf_pnp_05v5_W3p40L3p40_0.Emitter.n24 BGR_BJT_stage1_0.sky130_fd_pr__rf_pnp_05v5_W3p40L3p40_0.Emitter.t18 94.8314
R31 BGR_BJT_stage1_0.sky130_fd_pr__rf_pnp_05v5_W3p40L3p40_0.Emitter.n26 BGR_BJT_stage1_0.sky130_fd_pr__rf_pnp_05v5_W3p40L3p40_0.Emitter.t25 94.8314
R32 BGR_BJT_stage1_0.sky130_fd_pr__rf_pnp_05v5_W3p40L3p40_0.Emitter.n30 BGR_BJT_stage1_0.sky130_fd_pr__rf_pnp_05v5_W3p40L3p40_0.Emitter.t10 94.8314
R33 BGR_BJT_stage1_0.sky130_fd_pr__rf_pnp_05v5_W3p40L3p40_0.Emitter.n20 BGR_BJT_stage1_0.sky130_fd_pr__rf_pnp_05v5_W3p40L3p40_0.Emitter.t7 94.8314
R34 BGR_BJT_stage1_0.sky130_fd_pr__rf_pnp_05v5_W3p40L3p40_0.Emitter.n18 BGR_BJT_stage1_0.sky130_fd_pr__rf_pnp_05v5_W3p40L3p40_0.Emitter.t33 94.8314
R35 BGR_BJT_stage1_0.sky130_fd_pr__rf_pnp_05v5_W3p40L3p40_0.Emitter.n9 BGR_BJT_stage1_0.sky130_fd_pr__rf_pnp_05v5_W3p40L3p40_0.Emitter.t27 94.8314
R36 BGR_BJT_stage1_0.sky130_fd_pr__rf_pnp_05v5_W3p40L3p40_0.Emitter.n5 BGR_BJT_stage1_0.sky130_fd_pr__rf_pnp_05v5_W3p40L3p40_0.Emitter.t21 94.8314
R37 BGR_BJT_stage1_0.sky130_fd_pr__rf_pnp_05v5_W3p40L3p40_0.Emitter.n7 BGR_BJT_stage1_0.sky130_fd_pr__rf_pnp_05v5_W3p40L3p40_0.Emitter.t19 94.8314
R38 BGR_BJT_stage1_0.sky130_fd_pr__rf_pnp_05v5_W3p40L3p40_0.Emitter.n11 BGR_BJT_stage1_0.sky130_fd_pr__rf_pnp_05v5_W3p40L3p40_0.Emitter.t4 94.8314
R39 BGR_BJT_stage1_0.sky130_fd_pr__rf_pnp_05v5_W3p40L3p40_0.Emitter.n94 BGR_BJT_stage1_0.sky130_fd_pr__rf_pnp_05v5_W3p40L3p40_0.Emitter.n93 83.7933
R40 BGR_BJT_stage1_0.sky130_fd_pr__rf_pnp_05v5_W3p40L3p40_0.Emitter.n91 BGR_BJT_stage1_0.sky130_fd_pr__rf_pnp_05v5_W3p40L3p40_0.Emitter.n1 83.5719
R41 BGR_BJT_stage1_0.sky130_fd_pr__rf_pnp_05v5_W3p40L3p40_0.Emitter.n90 BGR_BJT_stage1_0.sky130_fd_pr__rf_pnp_05v5_W3p40L3p40_0.Emitter.n0 83.5719
R42 BGR_BJT_stage1_0.sky130_fd_pr__rf_pnp_05v5_W3p40L3p40_0.Emitter.n89 BGR_BJT_stage1_0.sky130_fd_pr__rf_pnp_05v5_W3p40L3p40_0.Emitter.n88 83.5719
R43 BGR_BJT_stage1_0.sky130_fd_pr__rf_pnp_05v5_W3p40L3p40_0.Emitter.n79 BGR_BJT_stage1_0.sky130_fd_pr__rf_pnp_05v5_W3p40L3p40_0.Emitter.n78 83.5719
R44 BGR_BJT_stage1_0.sky130_fd_pr__rf_pnp_05v5_W3p40L3p40_0.Emitter.n82 BGR_BJT_stage1_0.sky130_fd_pr__rf_pnp_05v5_W3p40L3p40_0.Emitter.n78 73.3165
R45 BGR_BJT_stage1_0.sky130_fd_pr__rf_pnp_05v5_W3p40L3p40_0.Emitter.n89 BGR_BJT_stage1_0.sky130_fd_pr__rf_pnp_05v5_W3p40L3p40_0.Emitter.n78 26.074
R46 BGR_BJT_stage1_0.sky130_fd_pr__rf_pnp_05v5_W3p40L3p40_0.Emitter.n91 BGR_BJT_stage1_0.sky130_fd_pr__rf_pnp_05v5_W3p40L3p40_0.Emitter.n90 26.074
R47 BGR_BJT_stage1_0.sky130_fd_pr__rf_pnp_05v5_W3p40L3p40_0.Emitter.n93 BGR_BJT_stage1_0.sky130_fd_pr__rf_pnp_05v5_W3p40L3p40_0.Emitter.n91 26.074
R48 BGR_BJT_stage1_0.sky130_fd_pr__rf_pnp_05v5_W3p40L3p40_0.Emitter.n90 BGR_BJT_stage1_0.sky130_fd_pr__rf_pnp_05v5_W3p40L3p40_0.Emitter.t2 25.7843
R49 BGR_BJT_stage1_0.sky130_fd_pr__rf_pnp_05v5_W3p40L3p40_0.Emitter.n93 BGR_BJT_stage1_0.sky130_fd_pr__rf_pnp_05v5_W3p40L3p40_0.Emitter.n92 25.7843
R50 BGR_BJT_stage1_0.sky130_fd_pr__rf_pnp_05v5_W3p40L3p40_0.Emitter.n13 BGR_BJT_stage1_0.sky130_fd_pr__rf_pnp_05v5_W3p40L3p40_0.Emitter.n3 10.2824
R51 BGR_BJT_stage1_0.sky130_fd_pr__rf_pnp_05v5_W3p40L3p40_0.Emitter.n77 BGR_BJT_stage1_0.sky130_fd_pr__rf_pnp_05v5_W3p40L3p40_0.Emitter.n76 9.5389
R52 BGR_BJT_stage1_0.sky130_fd_pr__rf_pnp_05v5_W3p40L3p40_0.Emitter.n62 BGR_BJT_stage1_0.sky130_fd_pr__rf_pnp_05v5_W3p40L3p40_0.Emitter.n61 7.22993
R53 BGR_BJT_stage1_0.sky130_fd_pr__rf_pnp_05v5_W3p40L3p40_0.Emitter.n41 BGR_BJT_stage1_0.sky130_fd_pr__rf_pnp_05v5_W3p40L3p40_0.Emitter.n40 7.22993
R54 BGR_BJT_stage1_0.sky130_fd_pr__rf_pnp_05v5_W3p40L3p40_0.Emitter.n22 BGR_BJT_stage1_0.sky130_fd_pr__rf_pnp_05v5_W3p40L3p40_0.Emitter.n21 7.22993
R55 BGR_BJT_stage1_0.sky130_fd_pr__rf_pnp_05v5_W3p40L3p40_0.Emitter.n72 BGR_BJT_stage1_0.sky130_fd_pr__rf_pnp_05v5_W3p40L3p40_0.Emitter.n71 6.83022
R56 BGR_BJT_stage1_0.sky130_fd_pr__rf_pnp_05v5_W3p40L3p40_0.Emitter.n51 BGR_BJT_stage1_0.sky130_fd_pr__rf_pnp_05v5_W3p40L3p40_0.Emitter.n50 6.81633
R57 BGR_BJT_stage1_0.sky130_fd_pr__rf_pnp_05v5_W3p40L3p40_0.Emitter.n32 BGR_BJT_stage1_0.sky130_fd_pr__rf_pnp_05v5_W3p40L3p40_0.Emitter.n31 6.81633
R58 BGR_BJT_stage1_0.sky130_fd_pr__rf_pnp_05v5_W3p40L3p40_0.Emitter.n13 BGR_BJT_stage1_0.sky130_fd_pr__rf_pnp_05v5_W3p40L3p40_0.Emitter.n12 6.81633
R59 BGR_BJT_stage1_0.sky130_fd_pr__rf_pnp_05v5_W3p40L3p40_0.Emitter.n95 BGR_BJT_stage1_0.sky130_fd_pr__rf_pnp_05v5_W3p40L3p40_0.Emitter.n77 6.75312
R60 BGR_BJT_stage1_0.sky130_fd_pr__rf_pnp_05v5_W3p40L3p40_0.Emitter.n81 BGR_BJT_stage1_0.sky130_fd_pr__rf_pnp_05v5_W3p40L3p40_0.Emitter.n80 2.29815
R61 BGR_BJT_stage1_0.sky130_fd_pr__rf_pnp_05v5_W3p40L3p40_0.Emitter.n82 BGR_BJT_stage1_0.sky130_fd_pr__rf_pnp_05v5_W3p40L3p40_0.Emitter.n81 2.20008
R62 BGR_BJT_stage1_0.sky130_fd_pr__rf_pnp_05v5_W3p40L3p40_0.Emitter.n22 BGR_BJT_stage1_0.sky130_fd_pr__rf_pnp_05v5_W3p40L3p40_0.Emitter.n13 1.86108
R63 BGR_BJT_stage1_0.sky130_fd_pr__rf_pnp_05v5_W3p40L3p40_0.Emitter.n32 BGR_BJT_stage1_0.sky130_fd_pr__rf_pnp_05v5_W3p40L3p40_0.Emitter.n22 1.86108
R64 BGR_BJT_stage1_0.sky130_fd_pr__rf_pnp_05v5_W3p40L3p40_0.Emitter.n41 BGR_BJT_stage1_0.sky130_fd_pr__rf_pnp_05v5_W3p40L3p40_0.Emitter.n32 1.86108
R65 BGR_BJT_stage1_0.sky130_fd_pr__rf_pnp_05v5_W3p40L3p40_0.Emitter.n51 BGR_BJT_stage1_0.sky130_fd_pr__rf_pnp_05v5_W3p40L3p40_0.Emitter.n41 1.86108
R66 BGR_BJT_stage1_0.sky130_fd_pr__rf_pnp_05v5_W3p40L3p40_0.Emitter.n62 BGR_BJT_stage1_0.sky130_fd_pr__rf_pnp_05v5_W3p40L3p40_0.Emitter.n51 1.86108
R67 BGR_BJT_stage1_0.sky130_fd_pr__rf_pnp_05v5_W3p40L3p40_0.Emitter.n72 BGR_BJT_stage1_0.sky130_fd_pr__rf_pnp_05v5_W3p40L3p40_0.Emitter.n62 1.86108
R68 BGR_BJT_stage1_0.sky130_fd_pr__rf_pnp_05v5_W3p40L3p40_0.Emitter.n77 BGR_BJT_stage1_0.sky130_fd_pr__rf_pnp_05v5_W3p40L3p40_0.Emitter.n72 1.86108
R69 BGR_BJT_stage1_0.sky130_fd_pr__rf_pnp_05v5_W3p40L3p40_0.Emitter.n95 BGR_BJT_stage1_0.sky130_fd_pr__rf_pnp_05v5_W3p40L3p40_0.Emitter.n94 1.5505
R70 BGR_BJT_stage1_0.sky130_fd_pr__rf_pnp_05v5_W3p40L3p40_0.Emitter.n97 BGR_BJT_stage1_0.sky130_fd_pr__rf_pnp_05v5_W3p40L3p40_0.Emitter.n96 1.5505
R71 BGR_BJT_stage1_0.sky130_fd_pr__rf_pnp_05v5_W3p40L3p40_0.Emitter.n87 BGR_BJT_stage1_0.sky130_fd_pr__rf_pnp_05v5_W3p40L3p40_0.Emitter.n2 1.5505
R72 BGR_BJT_stage1_0.sky130_fd_pr__rf_pnp_05v5_W3p40L3p40_0.Emitter.n86 BGR_BJT_stage1_0.sky130_fd_pr__rf_pnp_05v5_W3p40L3p40_0.Emitter.n85 1.5505
R73 BGR_BJT_stage1_0.sky130_fd_pr__rf_pnp_05v5_W3p40L3p40_0.Emitter.n84 BGR_BJT_stage1_0.sky130_fd_pr__rf_pnp_05v5_W3p40L3p40_0.Emitter.n83 1.5505
R74 BGR_BJT_stage1_0.sky130_fd_pr__rf_pnp_05v5_W3p40L3p40_0.Emitter.n94 BGR_BJT_stage1_0.sky130_fd_pr__rf_pnp_05v5_W3p40L3p40_0.Emitter.n1 1.43912
R75 BGR_BJT_stage1_0.sky130_fd_pr__rf_pnp_05v5_W3p40L3p40_0.Emitter.n74 BGR_BJT_stage1_0.sky130_fd_pr__rf_pnp_05v5_W3p40L3p40_0.Emitter.n73 1.327
R76 BGR_BJT_stage1_0.sky130_fd_pr__rf_pnp_05v5_W3p40L3p40_0.Emitter.n57 BGR_BJT_stage1_0.sky130_fd_pr__rf_pnp_05v5_W3p40L3p40_0.Emitter.n56 1.32184
R77 BGR_BJT_stage1_0.sky130_fd_pr__rf_pnp_05v5_W3p40L3p40_0.Emitter.n60 BGR_BJT_stage1_0.sky130_fd_pr__rf_pnp_05v5_W3p40L3p40_0.Emitter.n52 1.27838
R78 BGR_BJT_stage1_0.sky130_fd_pr__rf_pnp_05v5_W3p40L3p40_0.Emitter.n58 BGR_BJT_stage1_0.sky130_fd_pr__rf_pnp_05v5_W3p40L3p40_0.Emitter.n55 1.26044
R79 BGR_BJT_stage1_0.sky130_fd_pr__rf_pnp_05v5_W3p40L3p40_0.Emitter.n76 BGR_BJT_stage1_0.sky130_fd_pr__rf_pnp_05v5_W3p40L3p40_0.Emitter.n75 1.24668
R80 BGR_BJT_stage1_0.sky130_fd_pr__rf_pnp_05v5_W3p40L3p40_0.Emitter.n83 BGR_BJT_stage1_0.sky130_fd_pr__rf_pnp_05v5_W3p40L3p40_0.Emitter.n82 1.19225
R81 BGR_BJT_stage1_0.sky130_fd_pr__rf_pnp_05v5_W3p40L3p40_0.Emitter.n49 BGR_BJT_stage1_0.sky130_fd_pr__rf_pnp_05v5_W3p40L3p40_0.Emitter.n48 1.1424
R82 BGR_BJT_stage1_0.sky130_fd_pr__rf_pnp_05v5_W3p40L3p40_0.Emitter.n11 BGR_BJT_stage1_0.sky130_fd_pr__rf_pnp_05v5_W3p40L3p40_0.Emitter.n10 1.11251
R83 BGR_BJT_stage1_0.sky130_fd_pr__rf_pnp_05v5_W3p40L3p40_0.Emitter.n39 BGR_BJT_stage1_0.sky130_fd_pr__rf_pnp_05v5_W3p40L3p40_0.Emitter.n38 1.10979
R84 BGR_BJT_stage1_0.sky130_fd_pr__rf_pnp_05v5_W3p40L3p40_0.Emitter.n58 BGR_BJT_stage1_0.sky130_fd_pr__rf_pnp_05v5_W3p40L3p40_0.Emitter.n57 1.10442
R85 BGR_BJT_stage1_0.sky130_fd_pr__rf_pnp_05v5_W3p40L3p40_0.Emitter.n27 BGR_BJT_stage1_0.sky130_fd_pr__rf_pnp_05v5_W3p40L3p40_0.Emitter.n24 1.10164
R86 BGR_BJT_stage1_0.sky130_fd_pr__rf_pnp_05v5_W3p40L3p40_0.Emitter.n25 BGR_BJT_stage1_0.sky130_fd_pr__rf_pnp_05v5_W3p40L3p40_0.Emitter.n24 1.10164
R87 BGR_BJT_stage1_0.sky130_fd_pr__rf_pnp_05v5_W3p40L3p40_0.Emitter.n8 BGR_BJT_stage1_0.sky130_fd_pr__rf_pnp_05v5_W3p40L3p40_0.Emitter.n5 1.10164
R88 BGR_BJT_stage1_0.sky130_fd_pr__rf_pnp_05v5_W3p40L3p40_0.Emitter.n6 BGR_BJT_stage1_0.sky130_fd_pr__rf_pnp_05v5_W3p40L3p40_0.Emitter.n5 1.10164
R89 BGR_BJT_stage1_0.sky130_fd_pr__rf_pnp_05v5_W3p40L3p40_0.Emitter.n75 BGR_BJT_stage1_0.sky130_fd_pr__rf_pnp_05v5_W3p40L3p40_0.Emitter.n74 1.10145
R90 BGR_BJT_stage1_0.sky130_fd_pr__rf_pnp_05v5_W3p40L3p40_0.Emitter.n30 BGR_BJT_stage1_0.sky130_fd_pr__rf_pnp_05v5_W3p40L3p40_0.Emitter.n29 1.09892
R91 BGR_BJT_stage1_0.sky130_fd_pr__rf_pnp_05v5_W3p40L3p40_0.Emitter.n46 BGR_BJT_stage1_0.sky130_fd_pr__rf_pnp_05v5_W3p40L3p40_0.Emitter.n43 1.09349
R92 BGR_BJT_stage1_0.sky130_fd_pr__rf_pnp_05v5_W3p40L3p40_0.Emitter.n44 BGR_BJT_stage1_0.sky130_fd_pr__rf_pnp_05v5_W3p40L3p40_0.Emitter.n43 1.09349
R93 BGR_BJT_stage1_0.sky130_fd_pr__rf_pnp_05v5_W3p40L3p40_0.Emitter.n20 BGR_BJT_stage1_0.sky130_fd_pr__rf_pnp_05v5_W3p40L3p40_0.Emitter.n19 1.08805
R94 BGR_BJT_stage1_0.sky130_fd_pr__rf_pnp_05v5_W3p40L3p40_0.Emitter.n67 BGR_BJT_stage1_0.sky130_fd_pr__rf_pnp_05v5_W3p40L3p40_0.Emitter.n64 1.08262
R95 BGR_BJT_stage1_0.sky130_fd_pr__rf_pnp_05v5_W3p40L3p40_0.Emitter.n65 BGR_BJT_stage1_0.sky130_fd_pr__rf_pnp_05v5_W3p40L3p40_0.Emitter.n64 1.08262
R96 BGR_BJT_stage1_0.sky130_fd_pr__rf_pnp_05v5_W3p40L3p40_0.Emitter.n70 BGR_BJT_stage1_0.sky130_fd_pr__rf_pnp_05v5_W3p40L3p40_0.Emitter.n69 1.08262
R97 BGR_BJT_stage1_0.sky130_fd_pr__rf_pnp_05v5_W3p40L3p40_0.Emitter.n88 BGR_BJT_stage1_0.sky130_fd_pr__rf_pnp_05v5_W3p40L3p40_0.Emitter.n87 1.07024
R98 BGR_BJT_stage1_0.sky130_fd_pr__rf_pnp_05v5_W3p40L3p40_0.Emitter.n83 BGR_BJT_stage1_0.sky130_fd_pr__rf_pnp_05v5_W3p40L3p40_0.Emitter.n79 0.959578
R99 BGR_BJT_stage1_0.sky130_fd_pr__rf_pnp_05v5_W3p40L3p40_0.Emitter.n86 BGR_BJT_stage1_0.sky130_fd_pr__rf_pnp_05v5_W3p40L3p40_0.Emitter.n79 0.885803
R100 BGR_BJT_stage1_0.sky130_fd_pr__rf_pnp_05v5_W3p40L3p40_0.Emitter.n88 BGR_BJT_stage1_0.sky130_fd_pr__rf_pnp_05v5_W3p40L3p40_0.Emitter.n86 0.77514
R101 BGR_BJT_stage1_0.sky130_fd_pr__rf_pnp_05v5_W3p40L3p40_0.Emitter BGR_BJT_stage1_0.sky130_fd_pr__rf_pnp_05v5_W3p40L3p40_0.Emitter.n97 0.756696
R102 BGR_BJT_stage1_0.sky130_fd_pr__rf_pnp_05v5_W3p40L3p40_0.Emitter.n55 BGR_BJT_stage1_0.sky130_fd_pr__rf_pnp_05v5_W3p40L3p40_0.Emitter.n54 0.679848
R103 BGR_BJT_stage1_0.sky130_fd_pr__rf_pnp_05v5_W3p40L3p40_0.Emitter.n69 BGR_BJT_stage1_0.sky130_fd_pr__rf_pnp_05v5_W3p40L3p40_0.Emitter.n68 0.645119
R104 BGR_BJT_stage1_0.sky130_fd_pr__rf_pnp_05v5_W3p40L3p40_0.Emitter.n67 BGR_BJT_stage1_0.sky130_fd_pr__rf_pnp_05v5_W3p40L3p40_0.Emitter.n66 0.645119
R105 BGR_BJT_stage1_0.sky130_fd_pr__rf_pnp_05v5_W3p40L3p40_0.Emitter.n66 BGR_BJT_stage1_0.sky130_fd_pr__rf_pnp_05v5_W3p40L3p40_0.Emitter.n65 0.645119
R106 BGR_BJT_stage1_0.sky130_fd_pr__rf_pnp_05v5_W3p40L3p40_0.Emitter.n68 BGR_BJT_stage1_0.sky130_fd_pr__rf_pnp_05v5_W3p40L3p40_0.Emitter.n63 0.645119
R107 BGR_BJT_stage1_0.sky130_fd_pr__rf_pnp_05v5_W3p40L3p40_0.Emitter.n71 BGR_BJT_stage1_0.sky130_fd_pr__rf_pnp_05v5_W3p40L3p40_0.Emitter.n70 0.645119
R108 BGR_BJT_stage1_0.sky130_fd_pr__rf_pnp_05v5_W3p40L3p40_0.Emitter.n48 BGR_BJT_stage1_0.sky130_fd_pr__rf_pnp_05v5_W3p40L3p40_0.Emitter.n47 0.645119